pglib_opf_case2000_tamu.m
%%%%%%%%%%%%%%%%%%%%%%%%%%%%%%%%%%%%%%%%%%%%%%%%%%%%%%%%%%%%%%%%%%%%%%%%%%%
%%%%                                                                  %%%%%
%%%%    IEEE PES Power Grid Library - Optimal Power Flow - v18.08     %%%%%
%%%%          (https://github.com/power-grid-lib/pglib-opf)           %%%%%
%%%%               Benchmark Group - Typical Operations               %%%%%
%%%%                        08 - August - 2018                        %%%%%
%%%%                                                                  %%%%%
%%%%%%%%%%%%%%%%%%%%%%%%%%%%%%%%%%%%%%%%%%%%%%%%%%%%%%%%%%%%%%%%%%%%%%%%%%%
%
%   This is an entirely synthetic 2000 bus case, geographically situated
%   in the US state of Texas. The case is designed with a 500, 230, 161
%   and 115 kV transmission network to serve a load that roughly mimics
%   the actual population of its geographic footprint. The synthetic
%   transmission system was designed by algorithms described in [1] to be
%   statistically similar to actual transmission system models but without
%   modeling any actual lines.
%
%   When publishing results based on this data, please cite:
%
%   [1] A.B. Birchfield, T. Xu, K.M. Gegner, K.S. Shetye, T.J. Overbye,
%       "Grid Structural Characteristics as Validation Criteria for
%       Synthetic Networks," IEEE Transactions on Power Systems,
%       vol. 32, no. 4, pp. 3258-3265, July 2017.
%       DOI: 10.1109/TPWRS.2016.2616385
%
%   This is a synthetic power system model that does not represent the
%   actual grid. It was developed as part of the US ARPA-E GRID DATA
%   research project and contains no CEII.
%
%   One-line diagrams and other data formats available at:
%       https://electricgrids.engr.tamu.edu
%
%   February 3, 2018
%
%   Created from ACTIVSg2000.pwb, saved by
%   PowerWorld Simulator, version 20, build date January 28, 2018,
%   then by MATPOWER 6.
%
%   Copyright (c) 2017-2018 by A.B. Birchfield, T. Xu, K.M. Gegner, K.S. Shetye,
%   and T.J. Overbye
%   Licensed under the Creative Commons Attribution 4.0 International license,
%   http://creativecommons.org/licenses/by/4.0/
%
function mpc = pglib_opf_case2000_tamu
mpc.version = '2';
mpc.baseMVA = 100.0;

%% bus data
%	bus_i	type	Pd	Qd	Gs	Bs	area	Vm	Va	baseKV	zone	Vmax	Vmin
mpc.bus = [
	1001	 1	 20.78	 5.89	 0.0	 0.0	 1	    1.00000	    0.00000	 115.0	 9	    1.10000	    0.90000;
	1002	 1	 15.41	 4.37	 0.0	 0.0	 1	    1.00000	    0.00000	 115.0	 9	    1.10000	    0.90000;
	1003	 1	 0.0	 0.0	 0.0	 0.0	 1	    1.00000	    0.00000	 115.0	 9	    1.10000	    0.90000;
	1004	 2	 0.0	 0.0	 0.0	 0.0	 1	    1.00000	    0.00000	 230.0	 9	    1.10000	    0.90000;
	1005	 1	 0.0	 0.0	 0.0	 0.0	 1	    1.00000	    0.00000	 115.0	 9	    1.10000	    0.90000;
	1006	 2	 0.0	 0.0	 0.0	 0.0	 1	    1.00000	    0.00000	 13.8	 9	    1.10000	    0.90000;
	1007	 1	 7.01	 1.99	 0.0	 -0.82	 1	    1.00000	    0.00000	 115.0	 9	    1.10000	    0.90000;
	1008	 1	 0.0	 0.0	 0.0	 0.0	 1	    1.00000	    0.00000	 115.0	 9	    1.10000	    0.90000;
	1009	 2	 0.0	 0.0	 0.0	 0.0	 1	    1.00000	    0.00000	 13.8	 9	    1.10000	    0.90000;
	1010	 1	 0.0	 0.0	 0.0	 -3.07	 1	    1.00000	    0.00000	 115.0	 9	    1.10000	    0.90000;
	1011	 2	 0.0	 0.0	 0.0	 0.0	 1	    1.00000	    0.00000	 22.0	 9	    1.10000	    0.90000;
	1012	 1	 2.99	 0.85	 0.0	 9.5	 1	    1.00000	    0.00000	 115.0	 9	    1.10000	    0.90000;
	1013	 1	 29.23	 8.28	 0.0	 0.0	 1	    1.00000	    0.00000	 115.0	 9	    1.10000	    0.90000;
	1014	 1	 2.22	 0.63	 0.0	 0.0	 1	    1.00000	    0.00000	 115.0	 9	    1.10000	    0.90000;
	1015	 1	 7.51	 2.13	 0.0	 0.0	 1	    1.00000	    0.00000	 115.0	 9	    1.10000	    0.90000;
	1016	 1	 2.89	 0.82	 0.0	 30.0	 1	    1.00000	    0.00000	 115.0	 9	    1.10000	    0.90000;
	1017	 1	 18.34	 5.2	 0.0	 0.0	 1	    1.00000	    0.00000	 115.0	 9	    1.10000	    0.90000;
	1018	 1	 0.07	 0.02	 0.0	 0.0	 1	    1.00000	    0.00000	 115.0	 9	    1.10000	    0.90000;
	1019	 1	 61.78	 17.5	 0.0	 142.98	 1	    1.00000	    0.00000	 115.0	 9	    1.10000	    0.90000;
	1020	 1	 0.0	 0.0	 0.0	 67.23	 1	    1.00000	    0.00000	 115.0	 9	    1.10000	    0.90000;
	1021	 2	 0.0	 0.0	 0.0	 0.0	 1	    1.00000	    0.00000	 13.8	 9	    1.10000	    0.90000;
	1022	 1	 0.0	 0.0	 0.0	 0.0	 1	    1.00000	    0.00000	 115.0	 9	    1.10000	    0.90000;
	1023	 2	 0.0	 0.0	 0.0	 0.0	 1	    1.00000	    0.00000	 13.8	 9	    1.10000	    0.90000;
	1024	 1	 63.04	 17.86	 0.0	 0.0	 1	    1.00000	    0.00000	 115.0	 9	    1.10000	    0.90000;
	1025	 1	 0.0	 0.0	 0.0	 0.0	 1	    1.00000	    0.00000	 115.0	 9	    1.10000	    0.90000;
	1026	 2	 0.0	 0.0	 0.0	 0.0	 1	    1.00000	    0.00000	 13.8	 9	    1.10000	    0.90000;
	1027	 1	 101.21	 28.68	 0.0	 75.0	 1	    1.00000	    0.00000	 115.0	 9	    1.10000	    0.90000;
	1028	 1	 10.01	 2.84	 0.0	 0.0	 1	    1.00000	    0.00000	 115.0	 9	    1.10000	    0.90000;
	1029	 1	 83.18	 23.57	 0.0	 40.0	 1	    1.00000	    0.00000	 115.0	 9	    1.10000	    0.90000;
	1030	 1	 24.63	 6.98	 0.0	 0.0	 1	    1.00000	    0.00000	 115.0	 9	    1.10000	    0.90000;
	1031	 1	 9.25	 2.62	 0.0	 0.0	 1	    1.00000	    0.00000	 115.0	 9	    1.10000	    0.90000;
	1032	 1	 0.0	 0.0	 0.0	 0.0	 1	    1.00000	    0.00000	 115.0	 9	    1.10000	    0.90000;
	1033	 2	 0.0	 0.0	 0.0	 50.0	 1	    1.00000	    0.00000	 230.0	 9	    1.10000	    0.90000;
	1034	 1	 0.0	 0.0	 0.0	 0.0	 1	    1.00000	    0.00000	 115.0	 9	    1.10000	    0.90000;
	1035	 2	 0.0	 0.0	 0.0	 0.0	 1	    1.00000	    0.00000	 13.8	 9	    1.10000	    0.90000;
	1036	 1	 13.6	 3.85	 0.0	 0.0	 1	    1.00000	    0.00000	 115.0	 9	    1.10000	    0.90000;
	1037	 1	 102.24	 28.97	 0.0	 0.0	 1	    1.00000	    0.00000	 115.0	 9	    1.10000	    0.90000;
	1038	 1	 0.0	 0.0	 0.0	 0.0	 1	    1.00000	    0.00000	 115.0	 9	    1.10000	    0.90000;
	1039	 2	 0.0	 0.0	 0.0	 0.0	 1	    1.00000	    0.00000	 22.0	 9	    1.10000	    0.90000;
	1040	 1	 44.36	 12.57	 0.0	 0.0	 1	    1.00000	    0.00000	 115.0	 9	    1.10000	    0.90000;
	1041	 1	 0.0	 0.0	 0.0	 0.0	 1	    1.00000	    0.00000	 115.0	 9	    1.10000	    0.90000;
	1042	 2	 0.0	 0.0	 0.0	 0.0	 1	    1.00000	    0.00000	 13.8	 9	    1.10000	    0.90000;
	1043	 2	 0.0	 0.0	 0.0	 0.0	 1	    1.00000	    0.00000	 13.8	 9	    1.10000	    0.90000;
	1044	 1	 14.68	 4.16	 0.0	 0.0	 1	    1.00000	    0.00000	 115.0	 9	    1.10000	    0.90000;
	1045	 1	 98.56	 27.93	 0.0	 0.0	 1	    1.00000	    0.00000	 115.0	 9	    1.10000	    0.90000;
	1046	 1	 11.08	 3.14	 0.0	 12.0	 1	    1.00000	    0.00000	 115.0	 9	    1.10000	    0.90000;
	1047	 1	 0.0	 0.0	 0.0	 0.0	 1	    1.00000	    0.00000	 115.0	 9	    1.10000	    0.90000;
	1048	 2	 0.0	 0.0	 0.0	 0.0	 1	    1.00000	    0.00000	 18.0	 9	    1.10000	    0.90000;
	1049	 2	 0.0	 0.0	 0.0	 0.0	 1	    1.00000	    0.00000	 18.0	 9	    1.10000	    0.90000;
	1050	 2	 0.0	 0.0	 0.0	 0.0	 1	    1.00000	    0.00000	 18.0	 9	    1.10000	    0.90000;
	1051	 2	 0.0	 0.0	 0.0	 0.0	 1	    1.00000	    0.00000	 18.0	 9	    1.10000	    0.90000;
	1052	 2	 0.0	 0.0	 0.0	 0.0	 1	    1.00000	    0.00000	 18.0	 9	    1.10000	    0.90000;
	1053	 2	 0.0	 0.0	 0.0	 0.0	 1	    1.00000	    0.00000	 230.0	 9	    1.10000	    0.90000;
	1054	 1	 14.99	 4.25	 0.0	 0.0	 1	    1.00000	    0.00000	 115.0	 9	    1.10000	    0.90000;
	1055	 1	 3.98	 1.13	 0.0	 0.0	 1	    1.00000	    0.00000	 115.0	 9	    1.10000	    0.90000;
	1056	 1	 0.0	 0.0	 0.0	 59.97	 1	    1.00000	    0.00000	 115.0	 9	    1.10000	    0.90000;
	1057	 2	 0.0	 0.0	 0.0	 0.0	 1	    1.00000	    0.00000	 18.0	 9	    1.10000	    0.90000;
	1058	 1	 13.46	 3.81	 0.0	 0.0	 1	    1.00000	    0.00000	 115.0	 9	    1.10000	    0.90000;
	1059	 2	 0.0	 0.0	 0.0	 0.0	 1	    1.00000	    0.00000	 22.0	 9	    1.10000	    0.90000;
	1060	 2	 0.0	 0.0	 0.0	 0.0	 1	    1.00000	    0.00000	 22.0	 9	    1.10000	    0.90000;
	1061	 1	 0.0	 0.0	 0.0	 0.0	 1	    1.00000	    0.00000	 115.0	 9	    1.10000	    0.90000;
	1062	 2	 0.0	 0.0	 0.0	 0.0	 1	    1.00000	    0.00000	 13.8	 9	    1.10000	    0.90000;
	1063	 2	 0.0	 0.0	 0.0	 0.0	 1	    1.00000	    0.00000	 13.8	 9	    1.10000	    0.90000;
	1064	 1	 123.76	 35.07	 0.0	 0.0	 1	    1.00000	    0.00000	 115.0	 9	    1.10000	    0.90000;
	1065	 1	 0.0	 0.0	 0.0	 0.0	 1	    1.00000	    0.00000	 115.0	 9	    1.10000	    0.90000;
	1066	 2	 0.0	 0.0	 0.0	 0.0	 1	    1.00000	    0.00000	 13.8	 9	    1.10000	    0.90000;
	1067	 1	 101.55	 28.77	 0.0	 0.0	 1	    1.00000	    0.00000	 115.0	 9	    1.10000	    0.90000;
	1068	 1	 59.4	 16.83	 0.0	 0.0	 1	    1.00000	    0.00000	 115.0	 9	    1.10000	    0.90000;
	1069	 1	 0.0	 0.0	 0.0	 0.0	 1	    1.00000	    0.00000	 115.0	 9	    1.10000	    0.90000;
	1070	 2	 0.0	 0.0	 0.0	 0.0	 1	    1.00000	    0.00000	 13.8	 9	    1.10000	    0.90000;
	1071	 1	 91.46	 25.91	 0.0	 0.0	 1	    1.00000	    0.00000	 115.0	 9	    1.10000	    0.90000;
	1072	 2	 0.0	 0.0	 0.0	 0.0	 1	    1.00000	    0.00000	 18.0	 9	    1.10000	    0.90000;
	1073	 2	 0.0	 0.0	 0.0	 0.0	 1	    1.00000	    0.00000	 18.0	 9	    1.10000	    0.90000;
	1074	 2	 0.0	 0.0	 0.0	 0.0	 1	    1.00000	    0.00000	 18.0	 9	    1.10000	    0.90000;
	1075	 2	 0.0	 0.0	 0.0	 0.0	 1	    1.00000	    0.00000	 18.0	 9	    1.10000	    0.90000;
	1076	 2	 0.0	 0.0	 0.0	 0.0	 1	    1.00000	    0.00000	 18.0	 9	    1.10000	    0.90000;
	1077	 2	 0.0	 0.0	 0.0	 0.0	 1	    1.00000	    0.00000	 18.0	 9	    1.10000	    0.90000;
	1078	 2	 0.0	 0.0	 0.0	 0.0	 1	    1.00000	    0.00000	 18.0	 9	    1.10000	    0.90000;
	1079	 2	 0.0	 0.0	 0.0	 0.0	 1	    1.00000	    0.00000	 500.0	 9	    1.10000	    0.90000;
	1080	 2	 0.0	 0.0	 0.0	 0.0	 1	    1.00000	    0.00000	 18.0	 9	    1.10000	    0.90000;
	1081	 2	 0.0	 0.0	 0.0	 56.9	 1	    1.00000	    0.00000	 230.0	 9	    1.10000	    0.90000;
	1082	 2	 0.0	 0.0	 0.0	 0.0	 1	    1.00000	    0.00000	 115.0	 9	    1.10000	    0.90000;
	1083	 1	 39.95	 11.32	 0.0	 26.15	 1	    1.00000	    0.00000	 115.0	 9	    1.10000	    0.90000;
	1084	 2	 0.0	 0.0	 0.0	 0.0	 1	    1.00000	    0.00000	 115.0	 9	    1.10000	    0.90000;
	1085	 1	 21.3	 6.03	 0.0	 0.0	 1	    1.00000	    0.00000	 115.0	 9	    1.10000	    0.90000;
	1086	 1	 39.67	 11.24	 0.0	 30.0	 1	    1.00000	    0.00000	 115.0	 9	    1.10000	    0.90000;
	1087	 1	 0.91	 0.26	 0.0	 8.66	 1	    1.00000	    0.00000	 115.0	 9	    1.10000	    0.90000;
	1088	 2	 0.0	 0.0	 0.0	 0.0	 1	    1.00000	    0.00000	 115.0	 9	    1.10000	    0.90000;
	1089	 1	 40.6	 11.5	 0.0	 0.0	 1	    1.00000	    0.00000	 115.0	 9	    1.10000	    0.90000;
	1090	 2	 0.0	 0.0	 0.0	 0.0	 1	    1.00000	    0.00000	 115.0	 9	    1.10000	    0.90000;
	1091	 1	 11.62	 3.29	 0.0	 0.0	 1	    1.00000	    0.00000	 161.0	 9	    1.10000	    0.90000;
	2001	 1	 48.36	 13.7	 0.0	 0.0	 2	    1.00000	    0.00000	 161.0	 11	    1.10000	    0.90000;
	2002	 1	 0.0	 0.0	 0.0	 0.0	 2	    1.00000	    0.00000	 500.0	 11	    1.10000	    0.90000;
	2003	 1	 0.0	 0.0	 0.0	 0.0	 2	    1.00000	    0.00000	 161.0	 11	    1.10000	    0.90000;
	2004	 2	 0.0	 0.0	 0.0	 0.0	 2	    1.00000	    0.00000	 13.8	 11	    1.10000	    0.90000;
	2005	 2	 0.0	 0.0	 0.0	 0.0	 2	    1.00000	    0.00000	 13.8	 11	    1.10000	    0.90000;
	2006	 2	 0.0	 0.0	 0.0	 0.0	 2	    1.00000	    0.00000	 13.8	 11	    1.10000	    0.90000;
	2007	 1	 9.54	 2.7	 0.0	 0.0	 2	    1.00000	    0.00000	 161.0	 11	    1.10000	    0.90000;
	2008	 1	 8.06	 2.28	 0.0	 0.0	 2	    1.00000	    0.00000	 161.0	 10	    1.10000	    0.90000;
	2009	 1	 39.14	 11.09	 0.0	 113.65	 2	    1.00000	    0.00000	 161.0	 11	    1.10000	    0.90000;
	2010	 1	 56.81	 16.09	 0.0	 22.39	 2	    1.00000	    0.00000	 161.0	 10	    1.10000	    0.90000;
	2011	 1	 0.0	 0.0	 0.0	 0.0	 2	    1.00000	    0.00000	 500.0	 10	    1.10000	    0.90000;
	2012	 1	 0.0	 0.0	 0.0	 0.0	 2	    1.00000	    0.00000	 161.0	 10	    1.10000	    0.90000;
	2013	 2	 0.0	 0.0	 0.0	 0.0	 2	    1.00000	    0.00000	 18.0	 10	    1.10000	    0.90000;
	2014	 1	 25.43	 7.2	 0.0	 0.0	 2	    1.00000	    0.00000	 161.0	 10	    1.10000	    0.90000;
	2015	 1	 4.69	 1.33	 0.0	 0.0	 2	    1.00000	    0.00000	 161.0	 11	    1.10000	    0.90000;
	2016	 1	 69.27	 19.63	 0.0	 0.0	 2	    1.00000	    0.00000	 161.0	 11	    1.10000	    0.90000;
	2017	 1	 0.0	 0.0	 0.0	 -200.0	 2	    1.00000	    0.00000	 500.0	 10	    1.10000	    0.90000;
	2018	 1	 0.0	 0.0	 0.0	 0.0	 2	    1.00000	    0.00000	 161.0	 10	    1.10000	    0.90000;
	2019	 2	 0.0	 0.0	 0.0	 0.0	 2	    1.00000	    0.00000	 20.0	 10	    1.10000	    0.90000;
	2020	 1	 47.97	 13.59	 0.0	 0.0	 2	    1.00000	    0.00000	 161.0	 11	    1.10000	    0.90000;
	2021	 1	 0.0	 0.0	 0.0	 0.0	 2	    1.00000	    0.00000	 500.0	 11	    1.10000	    0.90000;
	2022	 1	 11.56	 3.28	 0.0	 0.0	 2	    1.00000	    0.00000	 161.0	 11	    1.10000	    0.90000;
	2023	 2	 0.0	 0.0	 0.0	 0.0	 2	    1.00000	    0.00000	 13.8	 11	    1.10000	    0.90000;
	2024	 2	 0.0	 0.0	 0.0	 0.0	 2	    1.00000	    0.00000	 13.8	 11	    1.10000	    0.90000;
	2025	 1	 39.62	 11.23	 0.0	 0.0	 2	    1.00000	    0.00000	 161.0	 11	    1.10000	    0.90000;
	2026	 1	 18.57	 5.26	 0.0	 0.0	 2	    1.00000	    0.00000	 161.0	 10	    1.10000	    0.90000;
	2027	 1	 3.55	 1.01	 0.0	 0.0	 2	    1.00000	    0.00000	 161.0	 11	    1.10000	    0.90000;
	2028	 1	 14.24	 4.03	 0.0	 0.0	 2	    1.00000	    0.00000	 161.0	 11	    1.10000	    0.90000;
	2029	 1	 3.2	 0.91	 0.0	 0.0	 2	    1.00000	    0.00000	 161.0	 10	    1.10000	    0.90000;
	2030	 1	 47.15	 13.36	 0.0	 0.0	 2	    1.00000	    0.00000	 161.0	 11	    1.10000	    0.90000;
	2031	 1	 5.77	 1.63	 0.0	 0.0	 2	    1.00000	    0.00000	 161.0	 10	    1.10000	    0.90000;
	2032	 1	 3.35	 0.95	 0.0	 0.0	 2	    1.00000	    0.00000	 161.0	 11	    1.10000	    0.90000;
	2033	 1	 13.57	 3.85	 0.0	 0.0	 2	    1.00000	    0.00000	 161.0	 11	    1.10000	    0.90000;
	2034	 1	 5.34	 1.51	 0.0	 0.0	 2	    1.00000	    0.00000	 161.0	 11	    1.10000	    0.90000;
	2035	 1	 4.68	 1.33	 0.0	 0.0	 2	    1.00000	    0.00000	 161.0	 10	    1.10000	    0.90000;
	2036	 1	 41.59	 11.78	 0.0	 0.0	 2	    1.00000	    0.00000	 161.0	 11	    1.10000	    0.90000;
	2037	 1	 3.5	 0.99	 0.0	 0.0	 2	    1.00000	    0.00000	 161.0	 11	    1.10000	    0.90000;
	2038	 1	 2.6	 0.74	 0.0	 0.0	 2	    1.00000	    0.00000	 161.0	 11	    1.10000	    0.90000;
	2039	 1	 5.56	 1.58	 0.0	 0.0	 2	    1.00000	    0.00000	 161.0	 11	    1.10000	    0.90000;
	2040	 1	 15.9	 4.51	 0.0	 0.0	 2	    1.00000	    0.00000	 161.0	 11	    1.10000	    0.90000;
	2041	 1	 0.0	 0.0	 0.0	 0.0	 2	    1.00000	    0.00000	 161.0	 10	    1.10000	    0.90000;
	2042	 2	 0.0	 0.0	 0.0	 0.0	 2	    1.00000	    0.00000	 18.0	 10	    1.10000	    0.90000;
	2043	 1	 4.24	 1.2	 0.0	 0.0	 2	    1.00000	    0.00000	 161.0	 11	    1.10000	    0.90000;
	2044	 1	 27.4	 7.76	 0.0	 0.0	 2	    1.00000	    0.00000	 161.0	 11	    1.10000	    0.90000;
	2045	 1	 22.61	 6.4	 0.0	 0.0	 2	    1.00000	    0.00000	 161.0	 11	    1.10000	    0.90000;
	2046	 1	 22.13	 6.27	 0.0	 0.0	 2	    1.00000	    0.00000	 161.0	 11	    1.10000	    0.90000;
	2047	 1	 14.96	 4.24	 0.0	 0.0	 2	    1.00000	    0.00000	 161.0	 11	    1.10000	    0.90000;
	2048	 1	 6.42	 1.82	 0.0	 0.0	 2	    1.00000	    0.00000	 161.0	 10	    1.10000	    0.90000;
	2049	 1	 11.57	 3.28	 0.0	 0.0	 2	    1.00000	    0.00000	 161.0	 10	    1.10000	    0.90000;
	2050	 1	 3.66	 1.04	 0.0	 0.0	 2	    1.00000	    0.00000	 161.0	 11	    1.10000	    0.90000;
	2051	 1	 17.85	 5.06	 0.0	 0.0	 2	    1.00000	    0.00000	 161.0	 11	    1.10000	    0.90000;
	2052	 1	 24.84	 7.04	 0.0	 0.0	 2	    1.00000	    0.00000	 161.0	 10	    1.10000	    0.90000;
	2053	 1	 29.13	 8.25	 0.0	 0.0	 2	    1.00000	    0.00000	 161.0	 11	    1.10000	    0.90000;
	2054	 1	 0.0	 0.0	 0.0	 0.0	 2	    1.00000	    0.00000	 500.0	 11	    1.10000	    0.90000;
	2055	 1	 49.62	 14.06	 0.0	 0.0	 2	    1.00000	    0.00000	 161.0	 11	    1.10000	    0.90000;
	2056	 2	 0.0	 0.0	 0.0	 0.0	 2	    1.00000	    0.00000	 18.0	 11	    1.10000	    0.90000;
	2057	 2	 0.0	 0.0	 0.0	 0.0	 2	    1.00000	    0.00000	 18.0	 11	    1.10000	    0.90000;
	2058	 1	 0.0	 0.0	 0.0	 0.0	 2	    1.00000	    0.00000	 161.0	 10	    1.10000	    0.90000;
	2059	 2	 0.0	 0.0	 0.0	 0.0	 2	    1.00000	    0.00000	 13.8	 10	    1.10000	    0.90000;
	2060	 1	 3.8	 1.08	 0.0	 0.0	 2	    1.00000	    0.00000	 161.0	 11	    1.10000	    0.90000;
	2061	 1	 0.0	 0.0	 0.0	 0.0	 2	    1.00000	    0.00000	 161.0	 10	    1.10000	    0.90000;
	2062	 2	 0.0	 0.0	 0.0	 0.0	 2	    1.00000	    0.00000	 18.0	 10	    1.10000	    0.90000;
	2063	 1	 65.62	 18.59	 0.0	 40.0	 2	    1.00000	    0.00000	 161.0	 11	    1.10000	    0.90000;
	2064	 1	 10.05	 2.85	 0.0	 0.0	 2	    1.00000	    0.00000	 161.0	 11	    1.10000	    0.90000;
	2065	 1	 78.36	 22.2	 0.0	 94.98	 2	    1.00000	    0.00000	 161.0	 11	    1.10000	    0.90000;
	2066	 1	 7.11	 2.02	 0.0	 0.0	 2	    1.00000	    0.00000	 161.0	 10	    1.10000	    0.90000;
	2067	 1	 53.97	 15.29	 0.0	 0.0	 2	    1.00000	    0.00000	 161.0	 11	    1.10000	    0.90000;
	2068	 1	 5.76	 1.63	 0.0	 0.0	 2	    1.00000	    0.00000	 161.0	 11	    1.10000	    0.90000;
	2069	 1	 21.92	 6.21	 0.0	 110.69	 2	    1.00000	    0.00000	 161.0	 11	    1.10000	    0.90000;
	2070	 1	 0.0	 0.0	 0.0	 0.0	 2	    1.00000	    0.00000	 161.0	 11	    1.10000	    0.90000;
	2071	 2	 0.0	 0.0	 0.0	 0.0	 2	    1.00000	    0.00000	 18.0	 11	    1.10000	    0.90000;
	2072	 1	 9.71	 2.75	 0.0	 0.0	 2	    1.00000	    0.00000	 161.0	 11	    1.10000	    0.90000;
	2073	 1	 0.0	 0.0	 0.0	 0.0	 2	    1.00000	    0.00000	 161.0	 10	    1.10000	    0.90000;
	2074	 1	 0.0	 0.0	 0.0	 0.0	 2	    1.00000	    0.00000	 115.0	 10	    1.10000	    0.90000;
	2075	 1	 0.0	 0.0	 0.0	 0.0	 2	    1.00000	    0.00000	 115.0	 10	    1.10000	    0.90000;
	2076	 2	 0.0	 0.0	 0.0	 0.0	 2	    1.00000	    0.00000	 24.0	 10	    1.10000	    0.90000;
	2077	 1	 0.0	 0.0	 0.0	 0.0	 2	    1.00000	    0.00000	 161.0	 11	    1.10000	    0.90000;
	2078	 2	 0.0	 0.0	 0.0	 0.0	 2	    1.00000	    0.00000	 13.8	 11	    1.10000	    0.90000;
	2079	 1	 4.48	 1.27	 0.0	 0.0	 2	    1.00000	    0.00000	 161.0	 10	    1.10000	    0.90000;
	2080	 1	 16.93	 4.8	 0.0	 0.0	 2	    1.00000	    0.00000	 161.0	 11	    1.10000	    0.90000;
	2081	 1	 4.46	 1.26	 0.0	 0.0	 2	    1.00000	    0.00000	 161.0	 11	    1.10000	    0.90000;
	2082	 1	 59.03	 16.73	 0.0	 0.0	 2	    1.00000	    0.00000	 161.0	 11	    1.10000	    0.90000;
	2083	 2	 0.0	 0.0	 0.0	 0.0	 2	    1.00000	    0.00000	 20.0	 11	    1.10000	    0.90000;
	2084	 2	 0.0	 0.0	 0.0	 0.0	 2	    1.00000	    0.00000	 20.0	 11	    1.10000	    0.90000;
	2085	 2	 0.0	 0.0	 0.0	 0.0	 2	    1.00000	    0.00000	 20.0	 11	    1.10000	    0.90000;
	2086	 1	 2.19	 0.62	 0.0	 0.0	 2	    1.00000	    0.00000	 161.0	 11	    1.10000	    0.90000;
	2087	 1	 7.9	 2.24	 0.0	 0.0	 2	    1.00000	    0.00000	 161.0	 10	    1.10000	    0.90000;
	2088	 1	 0.0	 0.0	 0.0	 0.0	 2	    1.00000	    0.00000	 161.0	 11	    1.10000	    0.90000;
	2089	 2	 0.0	 0.0	 0.0	 0.0	 2	    1.00000	    0.00000	 24.0	 11	    1.10000	    0.90000;
	2090	 1	 2.42	 0.69	 0.0	 0.0	 2	    1.00000	    0.00000	 161.0	 11	    1.10000	    0.90000;
	2091	 1	 17.05	 4.83	 0.0	 0.0	 2	    1.00000	    0.00000	 161.0	 10	    1.10000	    0.90000;
	2092	 1	 24.11	 6.83	 0.0	 0.0	 2	    1.00000	    0.00000	 161.0	 11	    1.10000	    0.90000;
	2093	 1	 0.0	 0.0	 0.0	 0.0	 2	    1.00000	    0.00000	 161.0	 10	    1.10000	    0.90000;
	2094	 2	 0.0	 0.0	 0.0	 0.0	 2	    1.00000	    0.00000	 13.8	 10	    1.10000	    0.90000;
	2095	 2	 0.0	 0.0	 0.0	 0.0	 2	    1.00000	    0.00000	 13.8	 10	    1.10000	    0.90000;
	2096	 1	 0.0	 0.0	 0.0	 -122.33	 2	    1.00000	    0.00000	 500.0	 10	    1.10000	    0.90000;
	2097	 1	 0.0	 0.0	 0.0	 0.0	 2	    1.00000	    0.00000	 230.0	 10	    1.10000	    0.90000;
	2098	 1	 0.0	 0.0	 0.0	 0.0	 2	    1.00000	    0.00000	 161.0	 10	    1.10000	    0.90000;
	2099	 2	 0.0	 0.0	 0.0	 0.0	 2	    1.00000	    0.00000	 18.0	 10	    1.10000	    0.90000;
	2100	 2	 0.0	 0.0	 0.0	 0.0	 2	    1.00000	    0.00000	 18.0	 10	    1.10000	    0.90000;
	2101	 1	 0.0	 0.0	 0.0	 0.0	 2	    1.00000	    0.00000	 500.0	 11	    1.10000	    0.90000;
	2102	 1	 0.0	 0.0	 0.0	 0.0	 2	    1.00000	    0.00000	 161.0	 11	    1.10000	    0.90000;
	2103	 2	 0.0	 0.0	 0.0	 0.0	 2	    1.00000	    0.00000	 20.0	 11	    1.10000	    0.90000;
	2104	 2	 0.0	 0.0	 0.0	 0.0	 2	    1.00000	    0.00000	 20.0	 11	    1.10000	    0.90000;
	2105	 2	 0.0	 0.0	 0.0	 0.0	 2	    1.00000	    0.00000	 20.0	 11	    1.10000	    0.90000;
	2106	 1	 14.4	 4.08	 0.0	 0.0	 2	    1.00000	    0.00000	 161.0	 11	    1.10000	    0.90000;
	2107	 1	 74.15	 21.01	 0.0	 0.0	 2	    1.00000	    0.00000	 161.0	 11	    1.10000	    0.90000;
	2108	 1	 2.14	 0.61	 0.0	 0.0	 2	    1.00000	    0.00000	 161.0	 10	    1.10000	    0.90000;
	2109	 1	 33.81	 9.58	 0.0	 0.0	 2	    1.00000	    0.00000	 161.0	 11	    1.10000	    0.90000;
...
];

%% generator data
%	bus	Pg	Qg	Qmax	Qmin	Vg	mBase	status	Pmax	Pmin	Pc1	Pc2	Qc1min	Qc1max	Qc2min	Qc2max	ramp_agc	ramp_10	ramp_30	ramp_q	apf
mpc.gen = [
	1004	 158.25	 7.28	 44.94	 -30.38	 1.01	 253.2	 1	 158.25	 158.25	 0.0	 0.0	 0.0	 0.0	 0.0	 0.0	 0.0	 0.0	 0.0	 0.0	 211.0;
	1006	 25.73	 1.185	 7.31	 -4.94	 1.0	 41.16	 1	 25.73	 25.73	 0.0	 0.0	 0.0	 0.0	 0.0	 0.0	 0.0	 0.0	 0.0	 0.0	 34.3;
	1009	 61.87	 2.845	 17.57	 -11.88	 1.0	 99.0	 1	 61.87	 61.87	 0.0	 0.0	 0.0	 0.0	 0.0	 0.0	 0.0	 0.0	 0.0	 0.0	 82.5;
	1011	 6.5	 0.0	 0.0	 0.0	 1.0	 12.0	 1	 10.0	 3.0	 0.0	 0.0	 0.0	 0.0	 0.0	 0.0	 0.0	 0.0	 0.0	 0.0	 10.0;
	1021	 149.63	 6.88	 42.49	 -28.73	 1.0	 239.4	 1	 149.63	 149.63	 0.0	 0.0	 0.0	 0.0	 0.0	 0.0	 0.0	 0.0	 0.0	 0.0	 199.5;
	1023	 135.0	 6.21	 38.34	 -25.92	 1.01	 216.0	 1	 135.0	 135.0	 0.0	 0.0	 0.0	 0.0	 0.0	 0.0	 0.0	 0.0	 0.0	 0.0	 180.0;
	1026	 93.15	 4.285	 26.45	 -17.88	 1.0	 149.04	 1	 93.15	 93.15	 0.0	 0.0	 0.0	 0.0	 0.0	 0.0	 0.0	 0.0	 0.0	 0.0	 124.2;
	1033	 208.5	 9.59	 59.21	 -40.03	 1.0	 333.6	 1	 208.5	 208.5	 0.0	 0.0	 0.0	 0.0	 0.0	 0.0	 0.0	 0.0	 0.0	 0.0	 278.0;
	1035	 67.5	 3.105	 19.17	 -12.96	 1.0	 108.0	 1	 67.5	 67.5	 0.0	 0.0	 0.0	 0.0	 0.0	 0.0	 0.0	 0.0	 0.0	 0.0	 90.0;
	1039	 110.63	 5.09	 31.42	 -21.24	 1.0	 177.0	 1	 110.63	 110.63	 0.0	 0.0	 0.0	 0.0	 0.0	 0.0	 0.0	 0.0	 0.0	 0.0	 147.5;
	1042	 79.235	 4.205	 25.96	 -17.55	 1.0	 146.28	 0	 121.9	 36.57	 0.0	 0.0	 0.0	 0.0	 0.0	 0.0	 0.0	 0.0	 0.0	 0.0	 121.9;
	1043	 44.1	 2.025	 12.52	 -8.47	 1.0	 70.56	 1	 44.1	 44.1	 0.0	 0.0	 0.0	 0.0	 0.0	 0.0	 0.0	 0.0	 0.0	 0.0	 58.8;
	1048	 211.38	 64.715	 165.53	 -36.1	 1.0	 390.24	 0	 325.2	 97.56	 0.0	 0.0	 0.0	 0.0	 0.0	 0.0	 0.0	 0.0	 0.0	 0.0	 325.2;
	1049	 211.38	 64.715	 165.53	 -36.1	 1.0	 390.24	 0	 325.2	 97.56	 0.0	 0.0	 0.0	 0.0	 0.0	 0.0	 0.0	 0.0	 0.0	 0.0	 325.2;
	1050	 58.11	 17.79	 45.5	 -9.92	 1.0	 107.28	 1	 89.4	 26.82	 0.0	 0.0	 0.0	 0.0	 0.0	 0.0	 0.0	 0.0	 0.0	 0.0	 89.4;
	1051	 58.11	 17.79	 45.5	 -9.92	 1.0	 107.28	 1	 89.4	 26.82	 0.0	 0.0	 0.0	 0.0	 0.0	 0.0	 0.0	 0.0	 0.0	 0.0	 89.4;
	1052	 58.11	 17.79	 45.5	 -9.92	 1.0	 107.28	 1	 89.4	 26.82	 0.0	 0.0	 0.0	 0.0	 0.0	 0.0	 0.0	 0.0	 0.0	 0.0	 89.4;
	1053	 116.22	 35.58	 91.01	 -19.85	 1.0	 214.56	 0	 178.8	 53.64	 0.0	 0.0	 0.0	 0.0	 0.0	 0.0	 0.0	 0.0	 0.0	 0.0	 178.8;
	1057	 78.0	 4.14	 25.56	 -17.28	 1.0	 144.0	 0	 120.0	 36.0	 0.0	 0.0	 0.0	 0.0	 0.0	 0.0	 0.0	 0.0	 0.0	 0.0	 120.0;
	1059	 3.64	 1.115	 2.85	 -0.62	 1.04	 6.72	 0	 5.6	 1.68	 0.0	 0.0	 0.0	 0.0	 0.0	 0.0	 0.0	 0.0	 0.0	 0.0	 5.6;
	1060	 1.3	 0.4	 1.02	 -0.22	 1.04	 2.4	 0	 2.0	 0.6	 0.0	 0.0	 0.0	 0.0	 0.0	 0.0	 0.0	 0.0	 0.0	 0.0	 2.0;
	1062	 0.975	 0.0	 0.0	 0.0	 1.01	 1.8	 0	 1.5	 0.45	 0.0	 0.0	 0.0	 0.0	 0.0	 0.0	 0.0	 0.0	 0.0	 0.0	 1.5;
	1063	 149.5	 0.0	 0.0	 0.0	 1.01	 276.0	 0	 230.0	 69.0	 0.0	 0.0	 0.0	 0.0	 0.0	 0.0	 0.0	 0.0	 0.0	 0.0	 230.0;
	1066	 106.88	 4.915	 30.35	 -20.52	 1.0	 171.0	 1	 106.88	 106.88	 0.0	 0.0	 0.0	 0.0	 0.0	 0.0	 0.0	 0.0	 0.0	 0.0	 142.5;
	1070	 120.38	 5.54	 34.19	 -23.11	 1.04	 192.6	 1	 120.38	 120.38	 0.0	 0.0	 0.0	 0.0	 0.0	 0.0	 0.0	 0.0	 0.0	 0.0	 160.5;
	1072	 124.885	 38.235	 97.8	 -21.33	 1.01	 230.56	 1	 192.13	 57.64	 0.0	 0.0	 0.0	 0.0	 0.0	 0.0	 0.0	 0.0	 0.0	 0.0	 192.13;
	1073	 124.885	 38.235	 97.8	 -21.33	 1.01	 230.56	 1	 192.13	 57.64	 0.0	 0.0	 0.0	 0.0	 0.0	 0.0	 0.0	 0.0	 0.0	 0.0	 192.13;
	1074	 124.885	 38.235	 97.8	 -21.33	 1.01	 230.56	 1	 192.13	 57.64	 0.0	 0.0	 0.0	 0.0	 0.0	 0.0	 0.0	 0.0	 0.0	 0.0	 192.13;
	1075	 124.885	 38.235	 97.8	 -21.33	 1.01	 230.56	 1	 192.13	 57.64	 0.0	 0.0	 0.0	 0.0	 0.0	 0.0	 0.0	 0.0	 0.0	 0.0	 192.13;
	1076	 124.885	 38.235	 97.8	 -21.33	 1.01	 230.56	 0	 192.13	 57.64	 0.0	 0.0	 0.0	 0.0	 0.0	 0.0	 0.0	 0.0	 0.0	 0.0	 192.13;
	1077	 124.885	 38.235	 97.8	 -21.33	 1.01	 230.56	 0	 192.13	 57.64	 0.0	 0.0	 0.0	 0.0	 0.0	 0.0	 0.0	 0.0	 0.0	 0.0	 192.13;
	1078	 62.075	 19.005	 48.61	 -10.6	 1.01	 114.6	 1	 95.5	 28.65	 0.0	 0.0	 0.0	 0.0	 0.0	 0.0	 0.0	 0.0	 0.0	 0.0	 95.5;
	1079	 62.075	 19.005	 48.61	 -10.6	 1.01	 114.6	 1	 95.5	 28.65	 0.0	 0.0	 0.0	 0.0	 0.0	 0.0	 0.0	 0.0	 0.0	 0.0	 95.5;
	1080	 62.075	 19.005	 48.61	 -10.6	 1.01	 114.6	 1	 95.5	 28.65	 0.0	 0.0	 0.0	 0.0	 0.0	 0.0	 0.0	 0.0	 0.0	 0.0	 95.5;
	1081	 186.225	 57.015	 145.83	 -31.8	 1.01	 343.8	 0	 286.5	 85.95	 0.0	 0.0	 0.0	 0.0	 0.0	 0.0	 0.0	 0.0	 0.0	 0.0	 286.5;
	1082	 112.5	 5.175	 31.95	 -21.6	 1.0	 180.0	 1	 112.5	 112.5	 0.0	 0.0	 0.0	 0.0	 0.0	 0.0	 0.0	 0.0	 0.0	 0.0	 150.0;
	1084	 86.62	 3.985	 24.6	 -16.63	 1.04	 138.6	 1	 86.62	 86.62	 0.0	 0.0	 0.0	 0.0	 0.0	 0.0	 0.0	 0.0	 0.0	 0.0	 115.5;
	1088	 56.25	 2.585	 15.97	 -10.8	 1.0	 90.0	 1	 56.25	 56.25	 0.0	 0.0	 0.0	 0.0	 0.0	 0.0	 0.0	 0.0	 0.0	 0.0	 75.0;
	1090	 114.37	 5.26	 32.48	 -21.96	 1.02	 183.0	 1	 114.37	 114.37	 0.0	 0.0	 0.0	 0.0	 0.0	 0.0	 0.0	 0.0	 0.0	 0.0	 152.5;
	1090	 27.0	 1.245	 7.67	 -5.18	 1.02	 43.2	 1	 27.0	 27.0	 0.0	 0.0	 0.0	 0.0	 0.0	 0.0	 0.0	 0.0	 0.0	 0.0	 36.0;
	2004	 254.67	 77.97	 199.43	 -43.49	 1.02	 470.16	 0	 391.8	 117.54	 0.0	 0.0	 0.0	 0.0	 0.0	 0.0	 0.0	 0.0	 0.0	 0.0	 391.8;
	2005	 254.67	 77.97	 199.43	 -43.49	 1.02	 470.16	 0	 391.8	 117.54	 0.0	 0.0	 0.0	 0.0	 0.0	 0.0	 0.0	 0.0	 0.0	 0.0	 391.8;
	2006	 254.67	 77.97	 199.43	 -43.49	 1.02	 470.16	 0	 391.8	 117.54	 0.0	 0.0	 0.0	 0.0	 0.0	 0.0	 0.0	 0.0	 0.0	 0.0	 391.8;
	2013	 150.45	 6.92	 42.73	 -28.89	 1.0	 240.72	 1	 150.45	 150.45	 0.0	 0.0	 0.0	 0.0	 0.0	 0.0	 0.0	 0.0	 0.0	 0.0	 200.6;
	2019	 141.7	 7.52	 46.43	 -31.39	 1.04	 261.6	 0	 218.0	 65.4	 0.0	 0.0	 0.0	 0.0	 0.0	 0.0	 0.0	 0.0	 0.0	 0.0	 218.0;
	2023	 54.165	 16.585	 42.42	 -9.25	 1.02	 100.0	 1	 83.33	 25.0	 0.0	 0.0	 0.0	 0.0	 0.0	 0.0	 0.0	 0.0	 0.0	 0.0	 83.33;
	2024	 108.335	 33.165	 84.83	 -18.5	 1.02	 200.0	 1	 166.67	 50.0	 0.0	 0.0	 0.0	 0.0	 0.0	 0.0	 0.0	 0.0	 0.0	 0.0	 166.67;
	2042	 59.7	 2.745	 16.95	 -11.46	 1.01	 95.52	 1	 59.7	 59.7	 0.0	 0.0	 0.0	 0.0	 0.0	 0.0	 0.0	 0.0	 0.0	 0.0	 79.6;
	2056	 3.9	 1.035	 2.8	 -0.73	 0.99	 7.2	 0	 6.0	 1.8	 0.0	 0.0	 0.0	 0.0	 0.0	 0.0	 0.0	 0.0	 0.0	 0.0	 6.0;
	2057	 468.0	 123.84	 335.52	 -87.84	 0.99	 864.0	 1	 720.0	 216.0	 0.0	 0.0	 0.0	 0.0	 0.0	 0.0	 0.0	 0.0	 0.0	 0.0	 720.0;
	2059	 60.0	 2.76	 17.04	 -11.52	 1.0	 96.0	 1	 60.0	 60.0	 0.0	 0.0	 0.0	 0.0	 0.0	 0.0	 0.0	 0.0	 0.0	 0.0	 80.0;
	2062	 101.55	 4.67	 28.84	 -19.5	 1.02	 162.48	 1	 101.55	 101.55	 0.0	 0.0	 0.0	 0.0	 0.0	 0.0	 0.0	 0.0	 0.0	 0.0	 135.4;
	2071	 112.5	 5.175	 31.95	 -21.6	 1.0	 180.0	 1	 112.5	 112.5	 0.0	 0.0	 0.0	 0.0	 0.0	 0.0	 0.0	 0.0	 0.0	 0.0	 150.0;
	2076	 22.5	 1.035	 6.39	 -4.32	 1.04	 36.0	 1	 22.5	 22.5	 0.0	 0.0	 0.0	 0.0	 0.0	 0.0	 0.0	 0.0	 0.0	 0.0	 30.0;
	2078	 84.38	 3.88	 23.96	 -16.2	 1.02	 135.0	 1	 84.38	 84.38	 0.0	 0.0	 0.0	 0.0	 0.0	 0.0	 0.0	 0.0	 0.0	 0.0	 112.5;
	2083	 13.0	 3.98	 10.18	 -2.22	 1.02	 24.0	 1	 20.0	 6.0	 0.0	 0.0	 0.0	 0.0	 0.0	 0.0	 0.0	 0.0	 0.0	 0.0	 20.0;
	2084	 13.0	 3.98	 10.18	 -2.22	 1.02	 24.0	 0	 20.0	 6.0	 0.0	 0.0	 0.0	 0.0	 0.0	 0.0	 0.0	 0.0	 0.0	 0.0	 20.0;
	2085	 26.0	 7.96	 20.36	 -4.44	 1.02	 48.0	 0	 40.0	 12.0	 0.0	 0.0	 0.0	 0.0	 0.0	 0.0	 0.0	 0.0	 0.0	 0.0	 40.0;
	2089	 50.7	 2.335	 14.4	 -9.73	 1.0	 81.12	 1	 50.7	 50.7	 0.0	 0.0	 0.0	 0.0	 0.0	 0.0	 0.0	 0.0	 0.0	 0.0	 67.6;
	2094	 6.5	 0.345	 2.13	 -1.44	 1.0	 12.0	 0	 10.0	 3.0	 0.0	 0.0	 0.0	 0.0	 0.0	 0.0	 0.0	 0.0	 0.0	 0.0	 10.0;
	2095	 51.675	 2.74	 16.93	 -11.45	 1.0	 95.4	 0	 79.5	 23.85	 0.0	 0.0	 0.0	 0.0	 0.0	 0.0	 0.0	 0.0	 0.0	 0.0	 79.5;
	2099	 7.5	 0.345	 2.13	 -1.44	 1.02	 12.0	 1	 7.5	 7.5	 0.0	 0.0	 0.0	 0.0	 0.0	 0.0	 0.0	 0.0	 0.0	 0.0	 10.0;
	2100	 112.5	 5.175	 31.95	 -21.6	 1.02	 180.0	 1	 112.5	 112.5	 0.0	 0.0	 0.0	 0.0	 0.0	 0.0	 0.0	 0.0	 0.0	 0.0	 150.0;
	2103	 174.025	 53.28	 136.28	 -29.72	 1.0	 321.28	 0	 267.73	 80.32	 0.0	 0.0	 0.0	 0.0	 0.0	 0.0	 0.0	 0.0	 0.0	 0.0	 267.73;
	2104	 174.025	 53.28	 136.28	 -29.72	 1.0	 321.28	 0	 267.73	 80.32	 0.0	 0.0	 0.0	 0.0	 0.0	 0.0	 0.0	 0.0	 0.0	 0.0	 267.73;
	2105	 174.025	 53.28	 136.28	 -29.72	 1.0	 321.28	 0	 267.73	 80.32	 0.0	 0.0	 0.0	 0.0	 0.0	 0.0	 0.0	 0.0	 0.0	 0.0	 267.73;
	2115	 120.065	 36.76	 94.02	 -20.5	 1.0	 221.66	 1	 184.72	 55.41	 0.0	 0.0	 0.0	 0.0	 0.0	 0.0	 0.0	 0.0	 0.0	 0.0	 184.72;
	2116	 120.065	 36.76	 94.02	 -20.5	 1.0	 221.66	 1	 184.72	 55.41	 0.0	 0.0	 0.0	 0.0	 0.0	 0.0	 0.0	 0.0	 0.0	 0.0	 184.72;
	2117	 120.065	 36.76	 94.02	 -20.5	 1.0	 221.66	 1	 184.72	 55.41	 0.0	 0.0	 0.0	 0.0	 0.0	 0.0	 0.0	 0.0	 0.0	 0.0	 184.72;
	2118	 120.065	 36.76	 94.02	 -20.5	 1.0	 221.66	 1	 184.72	 55.41	 0.0	 0.0	 0.0	 0.0	 0.0	 0.0	 0.0	 0.0	 0.0	 0.0	 184.72;
	2119	 120.065	 36.76	 94.02	 -20.5	 1.0	 221.66	 1	 184.72	 55.41	 0.0	 0.0	 0.0	 0.0	 0.0	 0.0	 0.0	 0.0	 0.0	 0.0	 184.72;
	2120	 120.065	 36.76	 94.02	 -20.5	 1.01	 221.66	 1	 184.72	 55.41	 0.0	 0.0	 0.0	 0.0	 0.0	 0.0	 0.0	 0.0	 0.0	 0.0	 184.72;
	2123	 136.28	 6.27	 38.7	 -26.16	 1.0	 218.04	 1	 136.28	 136.28	 0.0	 0.0	 0.0	 0.0	 0.0	 0.0	 0.0	 0.0	 0.0	 0.0	 181.7;
	2127	 216.45	 9.955	 61.47	 -41.56	 1.04	 346.32	 1	 216.45	 216.45	 0.0	 0.0	 0.0	 0.0	 0.0	 0.0	 0.0	 0.0	 0.0	 0.0	 288.6;
	3004	 28.13	 1.295	 7.99	 -5.4	 1.0	 45.0	 1	 28.13	 28.13	 0.0	 0.0	 0.0	 0.0	 0.0	 0.0	 0.0	 0.0	 0.0	 0.0	 37.5;
	3017	 127.13	 5.845	 36.1	 -24.41	 1.01	 203.4	 1	 127.13	 127.13	 0.0	 0.0	 0.0	 0.0	 0.0	 0.0	 0.0	 0.0	 0.0	 0.0	 169.5;
	3020	 112.5	 5.175	 31.95	 -21.6	 1.03	 180.0	 1	 112.5	 112.5	 0.0	 0.0	 0.0	 0.0	 0.0	 0.0	 0.0	 0.0	 0.0	 0.0	 150.0;
	3028	 150.0	 6.9	 42.6	 -28.8	 1.04	 240.0	 1	 150.0	 150.0	 0.0	 0.0	 0.0	 0.0	 0.0	 0.0	 0.0	 0.0	 0.0	 0.0	 200.0;
	3034	 97.87	 4.505	 27.8	 -18.79	 1.03	 156.6	 1	 97.87	 97.87	 0.0	 0.0	 0.0	 0.0	 0.0	 0.0	 0.0	 0.0	 0.0	 0.0	 130.5;
	3039	 156.75	 7.21	 44.52	 -30.1	 1.04	 250.8	 1	 156.75	 156.75	 0.0	 0.0	 0.0	 0.0	 0.0	 0.0	 0.0	 0.0	 0.0	 0.0	 209.0;
	3043	 0.845	 0.26	 0.66	 -0.14	 1.04	 1.56	 0	 1.3	 0.39	 0.0	 0.0	 0.0	 0.0	 0.0	 0.0	 0.0	 0.0	 0.0	 0.0	 1.3;
	3044	 58.11	 17.79	 45.5	 -9.92	 1.04	 107.28	 0	 89.4	 26.82	 0.0	 0.0	 0.0	 0.0	 0.0	 0.0	 0.0	 0.0	 0.0	 0.0	 89.4;
	3045	 290.55	 88.95	 227.52	 -49.62	 1.04	 536.4	 0	 447.0	 134.1	 0.0	 0.0	 0.0	 0.0	 0.0	 0.0	 0.0	 0.0	 0.0	 0.0	 447.0;
	3048	 180.75	 8.315	 51.33	 -34.7	 1.04	 289.2	 1	 180.75	 180.75	 0.0	 0.0	 0.0	 0.0	 0.0	 0.0	 0.0	 0.0	 0.0	 0.0	 241.0;
	3055	 183.88	 8.46	 52.22	 -35.3	 1.04	 294.2	 1	 183.88	 183.88	 0.0	 0.0	 0.0	 0.0	 0.0	 0.0	 0.0	 0.0	 0.0	 0.0	 245.17;
	3056	 183.88	 8.46	 52.22	 -35.3	 1.04	 294.2	 1	 183.88	 183.88	 0.0	 0.0	 0.0	 0.0	 0.0	 0.0	 0.0	 0.0	 0.0	 0.0	 245.17;
	3057	 183.88	 8.46	 52.22	 -35.3	 1.04	 294.2	 1	 183.88	 183.88	 0.0	 0.0	 0.0	 0.0	 0.0	 0.0	 0.0	 0.0	 0.0	 0.0	 245.17;
	3060	 124.22	 5.715	 35.28	 -23.85	 1.04	 198.75	 1	 124.22	 124.22	 0.0	 0.0	 0.0	 0.0	 0.0	 0.0	 0.0	 0.0	 0.0	 0.0	 165.63;
	3061	 124.22	 5.715	 35.28	 -23.85	 1.04	 198.75	 1	 124.22	 124.22	 0.0	 0.0	 0.0	 0.0	 0.0	 0.0	 0.0	 0.0	 0.0	 0.0	 165.63;
	3062	 124.22	 5.715	 35.28	 -23.85	 1.04	 198.75	 1	 124.22	 124.22	 0.0	 0.0	 0.0	 0.0	 0.0	 0.0	 0.0	 0.0	 0.0	 0.0	 165.63;
	3063	 124.22	 5.715	 35.28	 -23.85	 1.04	 198.75	 1	 124.22	 124.22	 0.0	 0.0	 0.0	 0.0	 0.0	 0.0	 0.0	 0.0	 0.0	 0.0	 165.63;
	3065	 60.37	 2.78	 17.15	 -11.59	 1.0	 96.6	 1	 60.37	 60.37	 0.0	 0.0	 0.0	 0.0	 0.0	 0.0	 0.0	 0.0	 0.0	 0.0	 80.5;
	3068	 112.5	 5.175	 31.95	 -21.6	 1.04	 180.0	 1	 112.5	 112.5	 0.0	 0.0	 0.0	 0.0	 0.0	 0.0	 0.0	 0.0	 0.0	 0.0	 150.0;
	3071	 127.65	 5.87	 36.25	 -24.51	 1.0	 204.24	 1	 127.65	 127.65	 0.0	 0.0	 0.0	 0.0	 0.0	 0.0	 0.0	 0.0	 0.0	 0.0	 170.2;
	3074	 74.85	 3.445	 21.26	 -14.37	 1.0	 119.76	 1	 74.85	 74.85	 0.0	 0.0	 0.0	 0.0	 0.0	 0.0	 0.0	 0.0	 0.0	 0.0	 99.8;
	3081	 186.75	 8.59	 53.04	 -35.86	 1.04	 298.8	 1	 186.75	 186.75	 0.0	 0.0	 0.0	 0.0	 0.0	 0.0	 0.0	 0.0	 0.0	 0.0	 249.0;
	3084	 174.37	 8.02	 49.52	 -33.48	 1.0	 279.0	 1	 174.37	 174.37	 0.0	 0.0	 0.0	 0.0	 0.0	 0.0	 0.0	 0.0	 0.0	 0.0	 232.5;
	3086	 56.25	 2.585	 15.97	 -10.8	 1.0	 90.0	 1	 56.25	 56.25	 0.0	 0.0	 0.0	 0.0	 0.0	 0.0	 0.0	 0.0	 0.0	 0.0	 75.0;
	3087	 48.75	 2.585	 15.97	 -10.8	 1.0	 90.0	 0	 75.0	 22.5	 0.0	 0.0	 0.0	 0.0	 0.0	 0.0	 0.0	 0.0	 0.0	 0.0	 75.0;
	3092	 150.0	 6.9	 42.6	 -28.8	 1.04	 240.0	 1	 150.0	 150.0	 0.0	 0.0	 0.0	 0.0	 0.0	 0.0	 0.0	 0.0	 0.0	 0.0	 200.0;
	3095	 90.45	 4.16	 25.69	 -17.37	 1.04	 144.72	 1	 90.45	 90.45	 0.0	 0.0	 0.0	 0.0	 0.0	 0.0	 0.0	 0.0	 0.0	 0.0	 120.6;
	3098	 120.0	 5.52	 34.08	 -23.04	 1.04	 192.0	 1	 120.0	 120.0	 0.0	 0.0	 0.0	 0.0	 0.0	 0.0	 0.0	 0.0	 0.0	 0.0	 160.0;
	3105	 44.5	 8.165	 17.07	 -0.74	 1.0	 18.0	 1	 44.5	 44.5	 0.0	 0.0	 0.0	 0.0	 0.0	 0.0	 0.0	 0.0	 0.0	 0.0	 15.0;
	3106	 53.02	 29.895	 62.48	 -2.69	 1.0	 65.88	 1	 53.02	 53.02	 0.0	 0.0	 0.0	 0.0	 0.0	 0.0	 0.0	 0.0	 0.0	 0.0	 54.9;
	3110	 63.0	 2.895	 17.89	 -12.1	 1.04	 100.8	 1	 63.0	 63.0	 0.0	 0.0	 0.0	 0.0	 0.0	 0.0	 0.0	 0.0	 0.0	 0.0	 84.0;
	3112	 56.1	 2.58	 15.93	 -10.77	 1.0	 89.76	 1	 56.1	 56.1	 0.0	 0.0	 0.0	 0.0	 0.0	 0.0	 0.0	 0.0	 0.0	 0.0	 74.8;
	3113	 56.1	 2.58	 15.93	 -10.77	 1.0	 89.76	 1	 56.1	 56.1	 0.0	 0.0	 0.0	 0.0	 0.0	 0.0	 0.0	 0.0	 0.0	 0.0	 74.8;
	3117	 47.25	 2.175	 13.42	 -9.07	 1.0	 75.6	 1	 47.25	 47.25	 0.0	 0.0	 0.0	 0.0	 0.0	 0.0	 0.0	 0.0	 0.0	 0.0	 63.0;
	3118	 90.0	 4.14	 25.56	 -17.28	 1.0	 144.0	 1	 90.0	 90.0	 0.0	 0.0	 0.0	 0.0	 0.0	 0.0	 0.0	 0.0	 0.0	 0.0	 120.0;
	3120	 29.7	 0.0	 0.0	 0.0	 1.0	 47.52	 1	 29.7	 29.7	 0.0	 0.0	 0.0	 0.0	 0.0	 0.0	 0.0	 0.0	 0.0	 0.0	 39.6;
	3122	 147.75	 6.795	 41.96	 -28.37	 1.0	 236.4	 1	 147.75	 147.75	 0.0	 0.0	 0.0	 0.0	 0.0	 0.0	 0.0	 0.0	 0.0	 0.0	 197.0;
	3127	 101.25	 4.66	 28.76	 -19.44	 1.0	 162.0	 1	 101.25	 101.25	 0.0	 0.0	 0.0	 0.0	 0.0	 0.0	 0.0	 0.0	 0.0	 0.0	 135.0;
	3129	 94.88	 4.36	 26.94	 -18.22	 1.0	 151.8	 1	 94.88	 94.88	 0.0	 0.0	 0.0	 0.0	 0.0	 0.0	 0.0	 0.0	 0.0	 0.0	 126.5;
	3131	 85.5	 3.93	 24.28	 -16.42	 1.02	 136.8	 1	 85.5	 85.5	 0.0	 0.0	 0.0	 0.0	 0.0	 0.0	 0.0	 0.0	 0.0	 0.0	 114.0;
	3133	 33.345	 10.21	 26.11	 -5.69	 1.04	 61.56	 0	 51.3	 15.39	 0.0	 0.0	 0.0	 0.0	 0.0	 0.0	 0.0	 0.0	 0.0	 0.0	 51.3;
	3133	 33.345	 10.21	 26.11	 -5.69	 1.04	 61.56	 0	 51.3	 15.39	 0.0	 0.0	 0.0	 0.0	 0.0	 0.0	 0.0	 0.0	 0.0	 0.0	 51.3;
	3133	 33.345	 10.21	 26.11	 -5.69	 1.04	 61.56	 0	 51.3	 15.39	 0.0	 0.0	 0.0	 0.0	 0.0	 0.0	 0.0	 0.0	 0.0	 0.0	 51.3;
	3137	 75.9	 3.495	 21.56	 -14.57	 1.03	 121.44	 1	 75.9	 75.9	 0.0	 0.0	 0.0	 0.0	 0.0	 0.0	 0.0	 0.0	 0.0	 0.0	 101.2;
	3141	 68.62	 3.155	 19.49	 -13.18	 1.0	 109.8	 1	 68.62	 68.62	 0.0	 0.0	 0.0	 0.0	 0.0	 0.0	 0.0	 0.0	 0.0	 0.0	 91.5;
	4010	 151.2	 6.955	 42.94	 -29.03	 1.03	 241.92	 1	 151.2	 151.2	 0.0	 0.0	 0.0	 0.0	 0.0	 0.0	 0.0	 0.0	 0.0	 0.0	 201.6;
	4026	 266.5	 70.52	 191.06	 -50.02	 1.03	 492.0	 1	 410.0	 123.0	 0.0	 0.0	 0.0	 0.0	 0.0	 0.0	 0.0	 0.0	 0.0	 0.0	 410.0;
	4030	 404.56	 107.055	 290.04	 -75.93	 1.01	 746.88	 1	 622.4	 186.72	 0.0	 0.0	 0.0	 0.0	 0.0	 0.0	 0.0	 0.0	 0.0	 0.0	 622.4;
	4045	 93.4	 17.16	 35.86	 -1.54	 1.02	 37.8	 1	 93.4	 93.4	 0.0	 0.0	 0.0	 0.0	 0.0	 0.0	 0.0	 0.0	 0.0	 0.0	 31.5;
	4046	 28.5	 5.235	 10.94	 -0.47	 1.02	 11.52	 1	 28.5	 28.5	 0.0	 0.0	 0.0	 0.0	 0.0	 0.0	 0.0	 0.0	 0.0	 0.0	 9.6;
	4047	 27.48	 35.935	 75.1	 -3.23	 1.02	 79.2	 1	 27.48	 27.48	 0.0	 0.0	 0.0	 0.0	 0.0	 0.0	 0.0	 0.0	 0.0	 0.0	 66.0;
	4050	 150.0	 6.9	 42.6	 -28.8	 1.0	 240.0	 1	 150.0	 150.0	 0.0	 0.0	 0.0	 0.0	 0.0	 0.0	 0.0	 0.0	 0.0	 0.0	 200.0;
	4052	 28.73	 8.795	 22.5	 -4.91	 1.04	 53.04	 1	 44.2	 13.26	 0.0	 0.0	 0.0	 0.0	 0.0	 0.0	 0.0	 0.0	 0.0	 0.0	 44.2;
	4058	 93.6	 28.66	 73.3	 -15.98	 1.03	 172.8	 1	 144.0	 43.2	 0.0	 0.0	 0.0	 0.0	 0.0	 0.0	 0.0	 0.0	 0.0	 0.0	 144.0;
	4059	 93.6	 28.66	 73.3	 -15.98	 1.03	 172.8	 1	 144.0	 43.2	 0.0	 0.0	 0.0	 0.0	 0.0	 0.0	 0.0	 0.0	 0.0	 0.0	 144.0;
	4060	 93.6	 28.66	 73.3	 -15.98	 1.03	 172.8	 1	 144.0	 43.2	 0.0	 0.0	 0.0	 0.0	 0.0	 0.0	 0.0	 0.0	 0.0	 0.0	 144.0;
	4061	 112.015	 34.295	 87.72	 -19.13	 1.03	 206.8	 1	 172.33	 51.7	 0.0	 0.0	 0.0	 0.0	 0.0	 0.0	 0.0	 0.0	 0.0	 0.0	 172.33;
	4062	 112.015	 34.295	 87.72	 -19.13	 1.03	 206.8	 1	 172.33	 51.7	 0.0	 0.0	 0.0	 0.0	 0.0	 0.0	 0.0	 0.0	 0.0	 0.0	 172.33;
	4063	 112.015	 34.295	 87.72	 -19.13	 1.03	 206.8	 1	 172.33	 51.7	 0.0	 0.0	 0.0	 0.0	 0.0	 0.0	 0.0	 0.0	 0.0	 0.0	 172.33;
	4065	 30.55	 9.35	 23.92	 -5.22	 1.02	 56.4	 1	 47.0	 14.1	 0.0	 0.0	 0.0	 0.0	 0.0	 0.0	 0.0	 0.0	 0.0	 0.0	 47.0;
	4075	 114.615	 35.09	 89.75	 -19.57	 1.03	 211.6	 0	 176.33	 52.9	 0.0	 0.0	 0.0	 0.0	 0.0	 0.0	 0.0	 0.0	 0.0	 0.0	 176.33;
	4076	 114.615	 35.09	 89.75	 -19.57	 1.03	 211.6	 1	 176.33	 52.9	 0.0	 0.0	 0.0	 0.0	 0.0	 0.0	 0.0	 0.0	 0.0	 0.0	 176.33;
	4077	 114.615	 35.09	 89.75	 -19.57	 1.03	 211.6	 1	 176.33	 52.9	 0.0	 0.0	 0.0	 0.0	 0.0	 0.0	 0.0	 0.0	 0.0	 0.0	 176.33;
	4082	 158.21	 48.435	 123.89	 -27.02	 1.04	 292.08	 1	 243.4	 73.02	 0.0	 0.0	 0.0	 0.0	 0.0	 0.0	 0.0	 0.0	 0.0	 0.0	 243.4;
	4083	 158.21	 48.435	 123.89	 -27.02	 1.04	 292.08	 1	 243.4	 73.02	 0.0	 0.0	 0.0	 0.0	 0.0	 0.0	 0.0	 0.0	 0.0	 0.0	 243.4;
	4084	 158.21	 48.435	 123.89	 -27.02	 1.04	 292.08	 1	 243.4	 73.02	 0.0	 0.0	 0.0	 0.0	 0.0	 0.0	 0.0	 0.0	 0.0	 0.0	 243.4;
	4085	 228.8	 70.05	 179.17	 -39.07	 1.04	 422.4	 1	 352.0	 105.6	 0.0	 0.0	 0.0	 0.0	 0.0	 0.0	 0.0	 0.0	 0.0	 0.0	 352.0;
	4090	 0.91	 0.24	 0.65	 -0.17	 1.01	 1.68	 0	 1.4	 0.42	 0.0	 0.0	 0.0	 0.0	 0.0	 0.0	 0.0	 0.0	 0.0	 0.0	 1.4;
	4091	 15.275	 4.04	 10.95	 -2.87	 1.01	 28.2	 1	 23.5	 7.05	 0.0	 0.0	 0.0	 0.0	 0.0	 0.0	 0.0	 0.0	 0.0	 0.0	 23.5;
	4092	 4.94	 1.305	 3.54	 -0.93	 1.01	 9.12	 0	 7.6	 2.28	 0.0	 0.0	 0.0	 0.0	 0.0	 0.0	 0.0	 0.0	 0.0	 0.0	 7.6;
	4093	 18.2	 4.815	 13.05	 -3.42	 1.01	 33.6	 1	 28.0	 8.4	 0.0	 0.0	 0.0	 0.0	 0.0	 0.0	 0.0	 0.0	 0.0	 0.0	 28.0;
	4094	 18.2	 4.815	 13.05	 -3.42	 1.01	 33.6	 1	 28.0	 8.4	 0.0	 0.0	 0.0	 0.0	 0.0	 0.0	 0.0	 0.0	 0.0	 0.0	 28.0;
	4095	 18.2	 4.815	 13.05	 -3.42	 1.01	 33.6	 1	 28.0	 8.4	 0.0	 0.0	 0.0	 0.0	 0.0	 0.0	 0.0	 0.0	 0.0	 0.0	 28.0;
	4096	 18.2	 4.815	 13.05	 -3.42	 1.01	 33.6	 0	 28.0	 8.4	 0.0	 0.0	 0.0	 0.0	 0.0	 0.0	 0.0	 0.0	 0.0	 0.0	 28.0;
	4097	 18.2	 4.815	 13.05	 -3.42	 1.01	 33.6	 1	 28.0	 8.4	 0.0	 0.0	 0.0	 0.0	 0.0	 0.0	 0.0	 0.0	 0.0	 0.0	 28.0;
	4098	 18.2	 4.815	 13.05	 -3.42	 1.01	 33.6	 0	 28.0	 8.4	 0.0	 0.0	 0.0	 0.0	 0.0	 0.0	 0.0	 0.0	 0.0	 0.0	 28.0;
	4105	 135.0	 6.21	 38.34	 -25.92	 1.01	 216.0	 1	 135.0	 135.0	 0.0	 0.0	 0.0	 0.0	 0.0	 0.0	 0.0	 0.0	 0.0	 0.0	 180.0;
	4115	 85.67	 26.23	 67.09	 -14.63	 1.04	 158.16	 1	 131.8	 39.54	 0.0	 0.0	 0.0	 0.0	 0.0	 0.0	 0.0	 0.0	 0.0	 0.0	 131.8;
	4116	 85.67	 26.23	 67.09	 -14.63	 1.04	 158.16	 1	 131.8	 39.54	 0.0	 0.0	 0.0	 0.0	 0.0	 0.0	 0.0	 0.0	 0.0	 0.0	 131.8;
	4133	 21.84	 6.685	 17.1	 -3.73	 1.0	 40.32	 0	 33.6	 10.08	 0.0	 0.0	 0.0	 0.0	 0.0	 0.0	 0.0	 0.0	 0.0	 0.0	 33.6;
	4134	 21.84	 6.685	 17.1	 -3.73	 1.0	 40.32	 1	 33.6	 10.08	 0.0	 0.0	 0.0	 0.0	 0.0	 0.0	 0.0	 0.0	 0.0	 0.0	 33.6;
	4135	 21.84	 6.685	 17.1	 -3.73	 1.0	 40.32	 1	 33.6	 10.08	 0.0	 0.0	 0.0	 0.0	 0.0	 0.0	 0.0	 0.0	 0.0	 0.0	 33.6;
	4136	 21.84	 6.685	 17.1	 -3.73	 1.0	 40.32	 1	 33.6	 10.08	 0.0	 0.0	 0.0	 0.0	 0.0	 0.0	 0.0	 0.0	 0.0	 0.0	 33.6;
	4137	 43.68	 13.37	 34.2	 -7.46	 1.0	 80.64	 0	 67.2	 20.16	 0.0	 0.0	 0.0	 0.0	 0.0	 0.0	 0.0	 0.0	 0.0	 0.0	 67.2;
	4138	 42.9	 13.13	 33.59	 -7.33	 1.0	 79.2	 0	 66.0	 19.8	 0.0	 0.0	 0.0	 0.0	 0.0	 0.0	 0.0	 0.0	 0.0	 0.0	 66.0;
	4142	 141.0	 6.485	 40.04	 -27.07	 1.04	 225.6	 1	 141.0	 141.0	 0.0	 0.0	 0.0	 0.0	 0.0	 0.0	 0.0	 0.0	 0.0	 0.0	 188.0;
	4153	 212.4	 9.77	 60.32	 -40.78	 1.04	 339.84	 1	 212.4	 212.4	 0.0	 0.0	 0.0	 0.0	 0.0	 0.0	 0.0	 0.0	 0.0	 0.0	 283.2;
	4160	 128.55	 39.355	 100.66	 -21.95	 1.03	 237.32	 1	 197.77	 59.33	 0.0	 0.0	 0.0	 0.0	 0.0	 0.0	 0.0	 0.0	 0.0	 0.0	 197.77;
	4161	 128.55	 39.355	 100.66	 -21.95	 1.03	 237.32	 1	 197.77	 59.33	 0.0	 0.0	 0.0	 0.0	 0.0	 0.0	 0.0	 0.0	 0.0	 0.0	 197.77;
	4162	 128.55	 39.355	 100.66	 -21.95	 1.03	 237.32	 1	 197.77	 59.33	 0.0	 0.0	 0.0	 0.0	 0.0	 0.0	 0.0	 0.0	 0.0	 0.0	 197.77;
	4163	 5.85	 1.79	 4.58	 -1.0	 1.03	 10.8	 0	 9.0	 2.7	 0.0	 0.0	 0.0	 0.0	 0.0	 0.0	 0.0	 0.0	 0.0	 0.0	 9.0;
	4166	 150.75	 6.935	 42.81	 -28.94	 1.0	 241.2	 1	 150.75	 150.75	 0.0	 0.0	 0.0	 0.0	 0.0	 0.0	 0.0	 0.0	 0.0	 0.0	 201.0;
	4177	 112.5	 5.175	 31.95	 -21.6	 1.04	 180.0	 1	 112.5	 112.5	 0.0	 0.0	 0.0	 0.0	 0.0	 0.0	 0.0	 0.0	 0.0	 0.0	 150.0;
	4181	 150.07	 6.905	 42.62	 -28.81	 1.04	 240.12	 1	 150.07	 150.07	 0.0	 0.0	 0.0	 0.0	 0.0	 0.0	 0.0	 0.0	 0.0	 0.0	 200.1;
	4183	 152.25	 7.005	 43.24	 -29.23	 1.03	 243.6	 1	 152.25	 152.25	 0.0	 0.0	 0.0	 0.0	 0.0	 0.0	 0.0	 0.0	 0.0	 0.0	 203.0;
	4192	 48.75	 14.92	 38.17	 -8.33	 1.02	 90.0	 1	 75.0	 22.5	 0.0	 0.0	 0.0	 0.0	 0.0	 0.0	 0.0	 0.0	 0.0	 0.0	 75.0;
	4192	 119.45	 36.57	 93.54	 -20.4	 1.02	 220.52	 1	 183.77	 55.13	 0.0	 0.0	 0.0	 0.0	 0.0	 0.0	 0.0	 0.0	 0.0	 0.0	 183.77;
	4192	 15.6	 4.78	 12.22	 -2.66	 1.02	 28.8	 0	 24.0	 7.2	 0.0	 0.0	 0.0	 0.0	 0.0	 0.0	 0.0	 0.0	 0.0	 0.0	 24.0;
	4192	 39.65	 12.14	 31.05	 -6.77	 1.02	 73.2	 1	 61.0	 18.3	 0.0	 0.0	 0.0	 0.0	 0.0	 0.0	 0.0	 0.0	 0.0	 0.0	 61.0;
	4192	 6.76	 2.07	 5.29	 -1.15	 1.02	 12.48	 1	 10.4	 3.12	 0.0	 0.0	 0.0	 0.0	 0.0	 0.0	 0.0	 0.0	 0.0	 0.0	 10.4;
	4192	 173.55	 53.13	 135.9	 -29.64	 1.02	 320.4	 1	 267.0	 80.1	 0.0	 0.0	 0.0	 0.0	 0.0	 0.0	 0.0	 0.0	 0.0	 0.0	 267.0;
	4192	 173.55	 53.13	 135.9	 -29.64	 1.02	 320.4	 1	 267.0	 80.1	 0.0	 0.0	 0.0	 0.0	 0.0	 0.0	 0.0	 0.0	 0.0	 0.0	 267.0;
	4192	 173.55	 53.13	 135.9	 -29.64	 1.02	 320.4	 1	 267.0	 80.1	 0.0	 0.0	 0.0	 0.0	 0.0	 0.0	 0.0	 0.0	 0.0	 0.0	 267.0;
	4192	 119.45	 36.57	 93.54	 -20.4	 1.02	 220.52	 1	 183.77	 55.13	 0.0	 0.0	 0.0	 0.0	 0.0	 0.0	 0.0	 0.0	 0.0	 0.0	 183.77;
	4192	 119.45	 36.57	 93.54	 -20.4	 1.02	 220.52	 1	 183.77	 55.13	 0.0	 0.0	 0.0	 0.0	 0.0	 0.0	 0.0	 0.0	 0.0	 0.0	 183.77;
	4194	 151.2	 6.955	 42.94	 -29.03	 1.02	 241.92	 1	 151.2	 151.2	 0.0	 0.0	 0.0	 0.0	 0.0	 0.0	 0.0	 0.0	 0.0	 0.0	 201.6;
	4195	 69.0	 3.175	 19.6	 -13.25	 1.0	 110.4	 1	 69.0	 69.0	 0.0	 0.0	 0.0	 0.0	 0.0	 0.0	 0.0	 0.0	 0.0	 0.0	 92.0;
	5020	 90.0	 4.14	 25.56	 -17.28	 1.0	 144.0	 1	 90.0	 90.0	 0.0	 0.0	 0.0	 0.0	 0.0	 0.0	 0.0	 0.0	 0.0	 0.0	 120.0;
	5023	 3.12	 0.955	 2.44	 -0.53	 1.04	 5.76	 0	 4.8	 1.44	 0.0	 0.0	 0.0	 0.0	 0.0	 0.0	 0.0	 0.0	 0.0	 0.0	 4.8;
	5035	 2.73	 0.835	 2.14	 -0.47	 1.02	 5.04	 0	 4.2	 1.26	 0.0	 0.0	 0.0	 0.0	 0.0	 0.0	 0.0	 0.0	 0.0	 0.0	 4.2;
	5036	 4.16	 1.275	 3.26	 -0.71	 1.02	 7.68	 0	 6.4	 1.92	 0.0	 0.0	 0.0	 0.0	 0.0	 0.0	 0.0	 0.0	 0.0	 0.0	 6.4;
	5037	 200.505	 61.385	 157.01	 -34.24	 1.02	 370.16	 1	 308.47	 92.54	 0.0	 0.0	 0.0	 0.0	 0.0	 0.0	 0.0	 0.0	 0.0	 0.0	 308.47;
	5038	 200.505	 61.385	 157.01	 -34.24	 1.02	 370.16	 1	 308.47	 92.54	 0.0	 0.0	 0.0	 0.0	 0.0	 0.0	 0.0	 0.0	 0.0	 0.0	 308.47;
	5039	 200.505	 61.385	 157.01	 -34.24	 1.02	 370.16	 1	 308.47	 92.54	 0.0	 0.0	 0.0	 0.0	 0.0	 0.0	 0.0	 0.0	 0.0	 0.0	 308.47;
	5040	 200.505	 61.385	 157.01	 -34.24	 1.02	 370.16	 1	 308.47	 92.54	 0.0	 0.0	 0.0	 0.0	 0.0	 0.0	 0.0	 0.0	 0.0	 0.0	 308.47;
	5041	 200.505	 61.385	 157.01	 -34.24	 1.02	 370.16	 1	 308.47	 92.54	 0.0	 0.0	 0.0	 0.0	 0.0	 0.0	 0.0	 0.0	 0.0	 0.0	 308.47;
	5042	 200.505	 61.385	 157.01	 -34.24	 1.02	 370.16	 1	 308.47	 92.54	 0.0	 0.0	 0.0	 0.0	 0.0	 0.0	 0.0	 0.0	 0.0	 0.0	 308.47;
	5051	 55.055	 16.855	 43.11	 -9.4	 1.02	 101.64	 1	 84.7	 25.41	 0.0	 0.0	 0.0	 0.0	 0.0	 0.0	 0.0	 0.0	 0.0	 0.0	 84.7;
	5057	 206.275	 63.15	 161.53	 -35.23	 1.0	 380.82	 0	 317.35	 95.2	 0.0	 0.0	 0.0	 0.0	 0.0	 0.0	 0.0	 0.0	 0.0	 0.0	 317.35;
	5058	 206.275	 63.15	 161.53	 -35.23	 1.0	 380.82	 1	 317.35	 95.2	 0.0	 0.0	 0.0	 0.0	 0.0	 0.0	 0.0	 0.0	 0.0	 0.0	 317.35;
	5065	 6.89	 2.11	 5.4	 -1.18	 1.03	 12.72	 1	 10.6	 3.18	 0.0	 0.0	 0.0	 0.0	 0.0	 0.0	 0.0	 0.0	 0.0	 0.0	 10.6;
	5066	 1.17	 0.36	 0.92	 -0.2	 1.03	 2.16	 0	 1.8	 0.54	 0.0	 0.0	 0.0	 0.0	 0.0	 0.0	 0.0	 0.0	 0.0	 0.0	 1.8;
	5067	 284.875	 87.215	 223.08	 -48.65	 1.03	 525.92	 1	 438.27	 131.48	 0.0	 0.0	 0.0	 0.0	 0.0	 0.0	 0.0	 0.0	 0.0	 0.0	 438.27;
	5068	 284.875	 87.215	 223.08	 -48.65	 1.03	 525.92	 1	 438.27	 131.48	 0.0	 0.0	 0.0	 0.0	 0.0	 0.0	 0.0	 0.0	 0.0	 0.0	 438.27;
	5069	 284.875	 87.215	 223.08	 -48.65	 1.03	 525.92	 1	 438.27	 131.48	 0.0	 0.0	 0.0	 0.0	 0.0	 0.0	 0.0	 0.0	 0.0	 0.0	 438.27;
	5089	 61.95	 22.76	 47.57	 -2.05	 1.01	 50.16	 0	 123.9	 0.0	 0.0	 0.0	 0.0	 0.0	 0.0	 0.0	 0.0	 0.0	 0.0	 0.0	 41.8;
...
];

%% generator cost data
%	2	startup	shutdown	n	c(n-1)	...	c0
mpc.gencost = [
	2	 0.0	 0.0	 3	   0.000000	   0.000000	   0.000000;
	2	 0.0	 0.0	 3	   0.000000	   0.000000	   0.000000;
	2	 0.0	 0.0	 3	   0.000000	   0.000000	   0.000000;
	2	 0.0	 0.0	 3	   0.000000	   0.000000	   0.000000;
	2	 0.0	 0.0	 3	   0.000000	   0.000000	   0.000000;
	2	 0.0	 0.0	 3	   0.000000	   0.000000	   0.000000;
	2	 0.0	 0.0	 3	   0.000000	   0.000000	   0.000000;
	2	 0.0	 0.0	 3	   0.000000	   0.000000	   0.000000;
	2	 0.0	 0.0	 3	   0.000000	   0.000000	   0.000000;
	2	 0.0	 0.0	 3	   0.000000	   0.000000	   0.000000;
	2	 0.0	 0.0	 3	   0.000000	   0.000000	   0.000000;
	2	 0.0	 0.0	 3	   0.000000	   0.000000	   0.000000;
	2	 0.0	 0.0	 3	   0.001000	  18.641000	 1087.800000;
	2	 0.0	 0.0	 3	   0.001000	  18.641000	 1087.800000;
	2	 0.0	 0.0	 3	   0.001000	  17.464000	 734.100000;
	2	 0.0	 0.0	 3	   0.001000	  17.464000	 734.100000;
	2	 0.0	 0.0	 3	   0.001000	  17.464000	 734.100000;
	2	 0.0	 0.0	 3	   0.001000	  17.910000	 868.200000;
	2	 0.0	 0.0	 3	   0.000000	   0.000000	   0.000000;
	2	 0.0	 0.0	 3	   0.001000	  17.046000	 608.400000;
	2	 0.0	 0.0	 3	   0.001000	  17.028000	 603.000000;
	2	 0.0	 0.0	 3	   0.000000	   0.000000	   0.000000;
	2	 0.0	 0.0	 3	   0.000000	   0.000000	   0.000000;
	2	 0.0	 0.0	 3	   0.000000	   0.000000	   0.000000;
	2	 0.0	 0.0	 3	   0.000000	   0.000000	   0.000000;
	2	 0.0	 0.0	 3	   0.001000	  17.977000	 888.200000;
	2	 0.0	 0.0	 3	   0.001000	  17.977000	 888.200000;
	2	 0.0	 0.0	 3	   0.001000	  17.977000	 888.200000;
	2	 0.0	 0.0	 3	   0.001000	  17.977000	 888.200000;
	2	 0.0	 0.0	 3	   0.001000	  17.977000	 888.200000;
	2	 0.0	 0.0	 3	   0.001000	  17.977000	 888.200000;
	2	 0.0	 0.0	 3	   0.001000	  17.495000	 743.250000;
	2	 0.0	 0.0	 3	   0.001000	  17.495000	 743.250000;
	2	 0.0	 0.0	 3	   0.001000	  17.495000	 743.250000;
	2	 0.0	 0.0	 3	   0.001000	  18.448000	 1029.750000;
	2	 0.0	 0.0	 3	   0.000000	   0.000000	   0.000000;
	2	 0.0	 0.0	 3	   0.000000	   0.000000	   0.000000;
	2	 0.0	 0.0	 3	   0.000000	   0.000000	   0.000000;
	2	 0.0	 0.0	 3	   0.000000	   0.000000	   0.000000;
	2	 0.0	 0.0	 3	   0.000000	   0.000000	   0.000000;
	2	 0.0	 0.0	 3	   0.002000	  27.494000	 1187.700000;
	2	 0.0	 0.0	 3	   0.002000	  27.494000	 1187.700000;
	2	 0.0	 0.0	 3	   0.002000	  27.494000	 1187.700000;
	2	 0.0	 0.0	 3	   0.000000	   0.000000	   0.000000;
	2	 0.0	 0.0	 3	   0.000000	   0.000000	   0.000000;
	2	 0.0	 0.0	 3	   0.001000	  16.989000	 724.990000;
	2	 0.0	 0.0	 3	   0.001000	  17.394000	 850.010000;
	2	 0.0	 0.0	 3	   0.000000	   0.000000	   0.000000;
	2	 0.0	 0.0	 3	   0.002000	  17.268000	 236.160000;
	2	 0.0	 0.0	 3	   0.002000	  17.268000	 1398.510000;
	2	 0.0	 0.0	 3	   0.000000	   0.000000	   0.000000;
	2	 0.0	 0.0	 3	   0.000000	   0.000000	   0.000000;
	2	 0.0	 0.0	 3	   0.000000	   0.000000	   0.000000;
	2	 0.0	 0.0	 3	   0.000000	   0.000000	   0.000000;
	2	 0.0	 0.0	 3	   0.000000	   0.000000	   0.000000;
	2	 0.0	 0.0	 3	   0.001000	  16.033000	 630.000000;
	2	 0.0	 0.0	 3	   0.001000	  16.033000	 630.000000;
	2	 0.0	 0.0	 3	   0.001000	  16.126000	 660.000000;
	2	 0.0	 0.0	 3	   0.000000	   0.000000	   0.000000;
	2	 0.0	 0.0	 3	   0.000000	   0.000000	   0.000000;
	2	 0.0	 0.0	 3	   0.000000	   0.000000	   0.000000;
	2	 0.0	 0.0	 3	   0.000000	   0.000000	   0.000000;
	2	 0.0	 0.0	 3	   0.000000	   0.000000	   0.000000;
	2	 0.0	 0.0	 3	   0.002000	  26.597000	 1001.590000;
	2	 0.0	 0.0	 3	   0.002000	  26.597000	 1001.590000;
	2	 0.0	 0.0	 3	   0.002000	  26.597000	 1001.590000;
	2	 0.0	 0.0	 3	   0.001000	  17.482000	 877.080000;
	2	 0.0	 0.0	 3	   0.001000	  17.482000	 877.080000;
	2	 0.0	 0.0	 3	   0.001000	  17.482000	 877.080000;
	2	 0.0	 0.0	 3	   0.001000	  17.482000	 877.080000;
	2	 0.0	 0.0	 3	   0.001000	  17.482000	 877.080000;
	2	 0.0	 0.0	 3	   0.001000	  17.482000	 877.080000;
	2	 0.0	 0.0	 3	   0.000000	   0.000000	   0.000000;
	2	 0.0	 0.0	 3	   0.000000	   0.000000	   0.000000;
	2	 0.0	 0.0	 3	   0.000000	   0.000000	   0.000000;
	2	 0.0	 0.0	 3	   0.000000	   0.000000	   0.000000;
	2	 0.0	 0.0	 3	   0.000000	   0.000000	   0.000000;
	2	 0.0	 0.0	 3	   0.000000	   0.000000	   0.000000;
	2	 0.0	 0.0	 3	   0.000000	   0.000000	   0.000000;
	2	 0.0	 0.0	 3	   0.000000	   0.000000	   0.000000;
	2	 0.0	 0.0	 3	   0.002000	  19.197000	 601.950000;
	2	 0.0	 0.0	 3	   0.002000	  19.693000	 734.100000;
	2	 0.0	 0.0	 3	   0.002000	  21.704000	 1365.860000;
	2	 0.0	 0.0	 3	   0.000000	   0.000000	   0.000000;
	2	 0.0	 0.0	 3	   0.000000	   0.000000	   0.000000;
	2	 0.0	 0.0	 3	   0.000000	   0.000000	   0.000000;
	2	 0.0	 0.0	 3	   0.000000	   0.000000	   0.000000;
	2	 0.0	 0.0	 3	   0.000000	   0.000000	   0.000000;
	2	 0.0	 0.0	 3	   0.000000	   0.000000	   0.000000;
	2	 0.0	 0.0	 3	   0.000000	   0.000000	   0.000000;
	2	 0.0	 0.0	 3	   0.000000	   0.000000	   0.000000;
	2	 0.0	 0.0	 3	   0.000000	   0.000000	   0.000000;
	2	 0.0	 0.0	 3	   0.000000	   0.000000	   0.000000;
	2	 0.0	 0.0	 3	   0.000000	   0.000000	   0.000000;
	2	 0.0	 0.0	 3	   0.000000	   0.000000	   0.000000;
	2	 0.0	 0.0	 3	   0.000000	   0.000000	   0.000000;
	2	 0.0	 0.0	 3	   0.000000	   0.000000	   0.000000;
	2	 0.0	 0.0	 3	   0.000000	   0.000000	   0.000000;
	2	 0.0	 0.0	 3	   0.000000	   0.000000	   0.000000;
	2	 0.0	 0.0	 3	   0.000000	   0.000000	   0.000000;
	2	 0.0	 0.0	 3	   0.000000	   0.000000	   0.000000;
	2	 0.0	 0.0	 3	   0.000000	   0.000000	   0.000000;
	2	 0.0	 0.0	 3	   0.000000	   0.000000	   0.000000;
	2	 0.0	 0.0	 3	   0.000000	   0.000000	   0.000000;
	2	 0.0	 0.0	 3	   0.000000	   0.000000	   0.000000;
	2	 0.0	 0.0	 3	   0.000000	   0.000000	   0.000000;
	2	 0.0	 0.0	 3	   0.000000	   0.000000	   0.000000;
	2	 0.0	 0.0	 3	   0.000000	   0.000000	   0.000000;
	2	 0.0	 0.0	 3	   0.000000	   0.000000	   0.000000;
	2	 0.0	 0.0	 3	   0.000000	   0.000000	   0.000000;
	2	 0.0	 0.0	 3	   0.000000	   0.000000	   0.000000;
	2	 0.0	 0.0	 3	   0.000000	   0.000000	   0.000000;
	2	 0.0	 0.0	 3	   0.000000	   0.000000	   0.000000;
	2	 0.0	 0.0	 3	   0.000000	   0.000000	   0.000000;
	2	 0.0	 0.0	 3	   0.002000	  19.478000	 676.950000;
	2	 0.0	 0.0	 3	   0.002000	  19.478000	 676.950000;
	2	 0.0	 0.0	 3	   0.002000	  19.478000	 676.950000;
	2	 0.0	 0.0	 3	   0.000000	   0.000000	   0.000000;
	2	 0.0	 0.0	 3	   0.000000	   0.000000	   0.000000;
	2	 0.0	 0.0	 3	   0.000000	   0.000000	   0.000000;
	2	 0.0	 0.0	 3	   0.002000	  17.172000	 1243.080000;
	2	 0.0	 0.0	 3	   0.002000	  17.172000	 1349.570000;
	2	 0.0	 0.0	 3	   0.000000	   0.000000	   0.000000;
	2	 0.0	 0.0	 3	   0.000000	   0.000000	   0.000000;
	2	 0.0	 0.0	 3	   0.000000	   0.000000	   0.000000;
	2	 0.0	 0.0	 3	   0.000000	   0.000000	   0.000000;
	2	 0.0	 0.0	 3	   0.001000	  16.730000	 666.300000;
	2	 0.0	 0.0	 3	   0.001000	  17.213000	 816.000000;
	2	 0.0	 0.0	 3	   0.001000	  17.213000	 816.000000;
	2	 0.0	 0.0	 3	   0.001000	  17.213000	 816.000000;
	2	 0.0	 0.0	 3	   0.001000	  17.350000	 858.490000;
	2	 0.0	 0.0	 3	   0.001000	  17.350000	 858.490000;
	2	 0.0	 0.0	 3	   0.001000	  17.350000	 858.490000;
	2	 0.0	 0.0	 3	   0.001000	  16.743000	 670.500000;
	2	 0.0	 0.0	 3	   0.002000	  29.085000	 864.490000;
	2	 0.0	 0.0	 3	   0.002000	  29.085000	 864.490000;
	2	 0.0	 0.0	 3	   0.002000	  29.085000	 864.490000;
	2	 0.0	 0.0	 3	   0.001000	  17.694000	 965.100000;
	2	 0.0	 0.0	 3	   0.001000	  17.694000	 965.100000;
	2	 0.0	 0.0	 3	   0.001000	  17.694000	 965.100000;
	2	 0.0	 0.0	 3	   0.001000	  18.220000	 1128.000000;
	2	 0.0	 0.0	 3	   0.002000	  17.172000	 236.040000;
	2	 0.0	 0.0	 3	   0.002000	  17.172000	 236.630000;
	2	 0.0	 0.0	 3	   0.002000	  17.172000	 236.200000;
	2	 0.0	 0.0	 3	   0.002000	  17.172000	 236.750000;
	2	 0.0	 0.0	 3	   0.002000	  17.172000	 236.750000;
	2	 0.0	 0.0	 3	   0.002000	  17.172000	 236.750000;
	2	 0.0	 0.0	 3	   0.002000	  17.172000	 236.750000;
	2	 0.0	 0.0	 3	   0.002000	  17.172000	 236.750000;
	2	 0.0	 0.0	 3	   0.002000	  17.172000	 236.750000;
	2	 0.0	 0.0	 3	   0.000000	   0.000000	   0.000000;
	2	 0.0	 0.0	 3	   0.002000	  28.724000	 797.700000;
	2	 0.0	 0.0	 3	   0.002000	  28.724000	 797.700000;
	2	 0.0	 0.0	 3	   0.002000	  27.928000	 650.400000;
	2	 0.0	 0.0	 3	   0.002000	  27.928000	 650.400000;
	2	 0.0	 0.0	 3	   0.002000	  27.928000	 650.400000;
	2	 0.0	 0.0	 3	   0.002000	  27.928000	 650.400000;
	2	 0.0	 0.0	 3	   0.002000	  28.200000	 700.800000;
	2	 0.0	 0.0	 3	   0.002000	  28.190000	 699.000000;
	2	 0.0	 0.0	 3	   0.000000	   0.000000	   0.000000;
	2	 0.0	 0.0	 3	   0.000000	   0.000000	   0.000000;
	2	 0.0	 0.0	 3	   0.001000	  17.473000	 896.660000;
	2	 0.0	 0.0	 3	   0.001000	  17.473000	 896.660000;
	2	 0.0	 0.0	 3	   0.001000	  17.473000	 896.660000;
	2	 0.0	 0.0	 3	   0.001000	  16.559000	 613.500000;
	2	 0.0	 0.0	 3	   0.000000	   0.000000	   0.000000;
	2	 0.0	 0.0	 3	   0.000000	   0.000000	   0.000000;
	2	 0.0	 0.0	 3	   0.000000	   0.000000	   0.000000;
	2	 0.0	 0.0	 3	   0.000000	   0.000000	   0.000000;
	2	 0.0	 0.0	 3	   0.001000	  16.879000	 712.500000;
	2	 0.0	 0.0	 3	   0.001000	  17.405000	 875.660000;
	2	 0.0	 0.0	 3	   0.001000	  16.632000	 636.000000;
	2	 0.0	 0.0	 3	   0.001000	  16.811000	 691.500000;
	2	 0.0	 0.0	 3	   0.001000	  16.566000	 615.600000;
	2	 0.0	 0.0	 3	   0.001000	  17.808000	 1000.500000;
	2	 0.0	 0.0	 3	   0.001000	  17.808000	 1000.500000;
	2	 0.0	 0.0	 3	   0.001000	  17.808000	 1000.500000;
	2	 0.0	 0.0	 3	   0.001000	  17.405000	 875.660000;
	2	 0.0	 0.0	 3	   0.001000	  17.405000	 875.660000;
	2	 0.0	 0.0	 3	   0.000000	   0.000000	   0.000000;
	2	 0.0	 0.0	 3	   0.000000	   0.000000	   0.000000;
	2	 0.0	 0.0	 3	   0.000000	   0.000000	   0.000000;
	2	 0.0	 0.0	 3	   0.001000	  15.962000	 607.200000;
	2	 0.0	 0.0	 3	   0.001000	  15.177000	 606.300000;
	2	 0.0	 0.0	 3	   0.001000	  15.186000	 609.600000;
	2	 0.0	 0.0	 3	   0.001000	  16.529000	 1062.700000;
	2	 0.0	 0.0	 3	   0.001000	  16.529000	 1062.700000;
	2	 0.0	 0.0	 3	   0.001000	  16.529000	 1062.700000;
	2	 0.0	 0.0	 3	   0.001000	  16.529000	 1062.700000;
	2	 0.0	 0.0	 3	   0.001000	  16.529000	 1062.700000;
	2	 0.0	 0.0	 3	   0.001000	  16.529000	 1062.700000;
	2	 0.0	 0.0	 3	   0.001000	  16.996000	 727.050000;
	2	 0.0	 0.0	 3	   0.001000	  17.435000	 1076.030000;
	2	 0.0	 0.0	 3	   0.001000	  17.422000	 1076.030000;
	2	 0.0	 0.0	 3	   0.001000	  15.989000	 615.900000;
	2	 0.0	 0.0	 3	   0.001000	  15.948000	 602.700000;
	2	 0.0	 0.0	 3	   0.001000	  17.987000	 1223.610000;
	2	 0.0	 0.0	 3	   0.001000	  17.987000	 1223.610000;
	2	 0.0	 0.0	 3	   0.001000	  17.987000	 1223.610000;
	2	 0.0	 0.0	 3	   0.000000	   0.000000	   0.000000;
...
];

%% branch data
%	fbus	tbus	r	x	b	rateA	rateB	rateC	ratio	angle	status	angmin	angmax
mpc.branch = [
	1001	 1064	 0.00524	 0.0358	 0.00609	 221.0	 0.0	 0.0	 0.0	 0.0	 1	 -30.0	 30.0;
	1001	 1064	 0.00524	 0.0358	 0.00609	 221.0	 0.0	 0.0	 0.0	 0.0	 1	 -30.0	 30.0;
	1001	 1071	 0.00435	 0.02808	 0.00536	 221.0	 0.0	 0.0	 0.0	 0.0	 1	 -30.0	 30.0;
	1001	 1071	 0.00435	 0.02808	 0.00536	 221.0	 0.0	 0.0	 0.0	 0.0	 1	 -30.0	 30.0;
	1002	 1007	 0.07776	 0.46693	 0.06336	 98.0	 0.0	 0.0	 0.0	 0.0	 1	 -30.0	 30.0;
	1010	 1002	 0.05552	 0.1357	 0.01777	 98.0	 0.0	 0.0	 0.0	 0.0	 1	 -30.0	 30.0;
	1004	 1003	 0.0045	 0.11582	 0.0	 250.0	 0.0	 0.0	 1.0	 0.0	 1	 -30.0	 30.0;
	1022	 1003	 0.00485	 0.02012	 0.00341	 221.0	 0.0	 0.0	 0.0	 0.0	 1	 -30.0	 30.0;
	1055	 1003	 0.01574	 0.03782	 0.00513	 98.0	 0.0	 0.0	 0.0	 0.0	 1	 -30.0	 30.0;
	1004	 3133	 0.0042	 0.03	 0.055	 523.0	 0.0	 0.0	 0.0	 0.0	 1	 -30.0	 30.0;
	1006	 1005	 0.00602	 0.14707	 0.0	 42.0	 0.0	 0.0	 1.0	 0.0	 1	 -30.0	 30.0;
	1025	 1005	 0.01842	 0.0821	 0.01204	 149.0	 0.0	 0.0	 0.0	 0.0	 1	 -30.0	 30.0;
	1005	 1061	 0.00599	 0.02484	 0.00422	 221.0	 0.0	 0.0	 0.0	 0.0	 1	 -30.0	 30.0;
	1067	 1005	 0.01711	 0.04181	 0.00548	 98.0	 0.0	 0.0	 0.0	 0.0	 1	 -30.0	 30.0;
	1007	 1015	 0.06224	 0.37375	 0.05072	 98.0	 0.0	 0.0	 0.0	 0.0	 1	 -30.0	 30.0;
	1031	 1007	 0.04803	 0.27434	 0.04123	 98.0	 0.0	 0.0	 0.0	 0.0	 1	 -30.0	 30.0;
	1009	 1008	 0.00455	 0.09471	 0.0	 120.0	 0.0	 0.0	 1.0	 0.0	 1	 -30.0	 30.0;
	1008	 1032	 0.04501	 0.11002	 0.01441	 98.0	 0.0	 0.0	 0.0	 0.0	 1	 -30.0	 30.0;
	1008	 1069	 0.0083	 0.03628	 0.00553	 149.0	 0.0	 0.0	 0.0	 0.0	 1	 -30.0	 30.0;
	1011	 1010	 0.00721	 0.3246	 0.0	 46.0	 0.0	 0.0	 1.0	 0.0	 1	 -30.0	 30.0;
	1010	 1015	 0.04703	 0.28243	 0.03833	 98.0	 0.0	 0.0	 0.0	 0.0	 1	 -30.0	 30.0;
	1010	 1030	 0.0616	 0.3699	 0.0502	 98.0	 0.0	 0.0	 0.0	 0.0	 1	 -30.0	 30.0;
	1012	 1087	 0.04934	 0.20469	 0.03473	 149.0	 0.0	 0.0	 0.0	 0.0	 1	 -30.0	 30.0;
	3051	 1012	 0.0571	 0.24977	 0.03804	 149.0	 0.0	 0.0	 0.0	 0.0	 1	 -30.0	 30.0;
	1013	 1031	 0.04509	 0.27078	 0.03675	 98.0	 0.0	 0.0	 0.0	 0.0	 1	 -30.0	 30.0;
	1047	 1013	 0.00947	 0.06117	 0.01167	 221.0	 0.0	 0.0	 0.0	 0.0	 1	 -30.0	 30.0;
	1086	 1013	 0.079	 0.19311	 0.02529	 98.0	 0.0	 0.0	 0.0	 0.0	 1	 -30.0	 30.0;
	1014	 1047	 0.03566	 0.14794	 0.0251	 149.0	 0.0	 0.0	 0.0	 0.0	 1	 -30.0	 30.0;
	1014	 1083	 0.04105	 0.18293	 0.02682	 149.0	 0.0	 0.0	 0.0	 0.0	 1	 -30.0	 30.0;
	1016	 1034	 0.01828	 0.10976	 0.01489	 98.0	 0.0	 0.0	 0.0	 0.0	 1	 -30.0	 30.0;
	1068	 1016	 0.02773	 0.15837	 0.0238	 98.0	 0.0	 0.0	 0.0	 0.0	 1	 -30.0	 30.0;
	1018	 1017	 0.03227	 0.07887	 0.01033	 98.0	 0.0	 0.0	 0.0	 0.0	 1	 -30.0	 30.0;
	1017	 1029	 0.03244	 0.14188	 0.02161	 149.0	 0.0	 0.0	 0.0	 0.0	 1	 -30.0	 30.0;
	1037	 1017	 0.00752	 0.03352	 0.00491	 221.0	 0.0	 0.0	 0.0	 0.0	 1	 -30.0	 30.0;
	1047	 1017	 0.036	 0.156	 0.024	 150.0	 0.0	 0.0	 0.0	 0.0	 1	 -30.0	 30.0;
	1024	 1018	 0.01094	 0.06572	 0.00892	 98.0	 0.0	 0.0	 0.0	 0.0	 1	 -30.0	 30.0;
	1019	 1040	 0.04978	 0.20651	 0.03504	 149.0	 0.0	 0.0	 0.0	 0.0	 1	 -30.0	 30.0;
	1019	 1045	 0.01522	 0.0372	 0.00487	 221.0	 0.0	 0.0	 0.0	 0.0	 1	 -30.0	 30.0;
	1019	 1071	 0.0044	 0.028	 0.0054	 225.0	 0.0	 0.0	 0.0	 0.0	 1	 -30.0	 30.0;
	1071	 1019	 0.0044	 0.028	 0.0054	 225.0	 0.0	 0.0	 0.0	 0.0	 1	 -30.0	 30.0;
	1019	 1084	 0.03	 0.16	 0.025	 220.0	 0.0	 0.0	 0.0	 0.0	 1	 -30.0	 30.0;
	1021	 1020	 0.00327	 0.07812	 0.0	 250.0	 0.0	 0.0	 1.0	 0.0	 1	 -30.0	 30.0;
	1025	 1020	 0.00828	 0.03434	 0.00583	 149.0	 0.0	 0.0	 0.0	 0.0	 1	 -30.0	 30.0;
	1084	 1020	 0.01056	 0.06337	 0.0086	 221.0	 0.0	 0.0	 0.0	 0.0	 1	 -30.0	 30.0;
	1020	 3059	 0.0189	 0.06	 0.006	 300.0	 0.0	 0.0	 0.0	 0.0	 1	 -30.0	 30.0;
	1020	 3130	 0.00996	 0.06938	 0.01134	 221.0	 0.0	 0.0	 0.0	 0.0	 1	 -30.0	 30.0;
	1023	 1022	 0.00535	 0.11733	 0.0	 250.0	 0.0	 0.0	 1.0	 0.0	 1	 -30.0	 30.0;
...